<?xml version="1.0" encoding="UTF-8"?>

<!-- generated on 08/03/14 22:08:47 by SUMO netconvert Version 0.20.0
<?xml version="1.0" encoding="UTF-8"?>

<configuration xmlns:xsi="http://www.w3.org/2001/XMLSchema-instance" xsi:noNamespaceSchemaLocation="http://sumo-sim.org/xsd/netconvertConfiguration.xsd">

    <input>
        <osm-files value="instancia2o.osm"/>
    </input>

    <output>
        <output-file value="instancia2.net.xml"/>
    </output>

    <projection>
        <proj.utm value="true"/>
    </projection>

</configuration>
-->

<net version="0.13" xmlns:xsi="http://www.w3.org/2001/XMLSchema-instance" xsi:noNamespaceSchemaLocation="http://sumo-sim.org/xsd/net_file.xsd">

    <location netOffset="-588829.05,-4516791.13" convBoundary="0.00,0.00,736.70,658.58" origBoundary="-73.946974,40.797258,-73.938231,40.803228" projParameter="+proj=utm +zone=18 +ellps=WGS84 +datum=WGS84 +units=m +no_defs"/>

    <edge id=":42435211_0" function="internal">
        <lane id=":42435211_0_0" index="0" speed="20.83" length="5.13" shape="299.96,512.08 298.86,512.90 298.28,513.90 298.22,515.07 298.69,516.42"/>
    </edge>
    <edge id=":42435211_1" function="internal">
        <lane id=":42435211_1_0" index="0" speed="13.89" length="9.54" shape="299.96,512.08 291.56,516.61"/>
    </edge>
    <edge id=":42435211_2" function="internal">
        <lane id=":42435211_2_0" index="0" speed="27.78" length="6.28" shape="295.75,510.82 298.69,516.42"/>
        <lane id=":42435211_2_1" index="1" speed="27.78" length="6.28" shape="292.85,512.39 295.75,517.92"/>
    </edge>
    <edge id=":42435211_4" function="internal">
        <lane id=":42435211_4_0" index="0" speed="20.83" length="5.03" shape="292.85,512.39 293.32,513.68 293.27,514.81 292.68,515.79 291.56,516.61"/>
    </edge>
    <edge id=":42435222_0" function="internal">
        <lane id=":42435222_0_0" index="0" speed="20.83" length="5.00" shape="448.09,432.22 446.99,433.03 446.42,434.01 446.36,435.13 446.84,436.42"/>
    </edge>
    <edge id=":42435222_1" function="internal">
        <lane id=":42435222_1_0" index="0" speed="13.89" length="9.50" shape="448.09,432.22 439.73,436.73"/>
    </edge>
    <edge id=":42435222_2" function="internal">
        <lane id=":42435222_2_0" index="0" speed="27.78" length="6.20" shape="443.90,430.96 446.84,436.42"/>
        <lane id=":42435222_2_1" index="1" speed="27.78" length="6.20" shape="440.99,432.53 443.93,437.99"/>
    </edge>
    <edge id=":42435222_4" function="internal">
        <lane id=":42435222_4_0" index="0" speed="20.83" length="5.00" shape="440.99,432.53 441.46,433.81 441.41,434.94 440.83,435.91 439.73,436.73"/>
    </edge>
    <edge id=":42435230_0" function="internal">
        <lane id=":42435230_0_0" index="0" speed="20.83" length="5.01" shape="570.05,370.01 569.23,368.91 568.26,368.33 567.13,368.28 565.84,368.75"/>
    </edge>
    <edge id=":42435230_1" function="internal">
        <lane id=":42435230_1_0" index="0" speed="27.78" length="6.21" shape="570.05,370.01 567.09,364.55"/>
        <lane id=":42435230_1_1" index="1" speed="27.78" length="6.21" shape="572.95,368.44 570.00,362.98"/>
    </edge>
    <edge id=":42435230_3" function="internal">
        <lane id=":42435230_3_0" index="0" speed="13.89" length="9.51" shape="574.21,364.24 565.84,368.75"/>
    </edge>
    <edge id=":42435230_4" function="internal">
        <lane id=":42435230_4_0" index="0" speed="20.83" length="5.01" shape="574.21,364.24 572.92,364.71 571.79,364.66 570.81,364.08 570.00,362.98"/>
    </edge>
    <edge id=":42435388_0" function="internal">
        <lane id=":42435388_0_0" index="0" speed="20.83" length="5.03" shape="141.22,217.82 140.11,218.64 139.52,219.62 139.46,220.75 139.93,222.04"/>
    </edge>
    <edge id=":42435388_1" function="internal">
        <lane id=":42435388_1_0" index="0" speed="13.89" length="9.53" shape="141.22,217.82 132.82,222.33"/>
    </edge>
    <edge id=":42435388_2" function="internal">
        <lane id=":42435388_2_0" index="0" speed="27.78" length="6.28" shape="137.04,216.51 139.93,222.04"/>
        <lane id=":42435388_2_1" index="1" speed="27.78" length="6.28" shape="134.10,218.01 137.03,223.60"/>
    </edge>
    <edge id=":42435388_4" function="internal">
        <lane id=":42435388_4_0" index="0" speed="20.83" length="5.11" shape="134.10,218.01 134.56,219.35 134.51,220.51 133.93,221.51 132.82,222.33"/>
    </edge>
    <edge id=":42435392_0" function="internal">
        <lane id=":42435392_0_0" index="0" speed="20.83" length="5.00" shape="289.68,138.28 288.57,139.09 287.99,140.06 287.94,141.19 288.41,142.48"/>
    </edge>
    <edge id=":42435392_1" function="internal">
        <lane id=":42435392_1_0" index="0" speed="13.89" length="9.51" shape="289.68,138.28 281.29,142.77"/>
    </edge>
    <edge id=":42435392_2" function="internal">
        <lane id=":42435392_2_0" index="0" speed="27.78" length="6.22" shape="285.46,137.00 288.41,142.48"/>
        <lane id=":42435392_2_1" index="1" speed="27.78" length="6.22" shape="282.56,138.57 285.51,144.04"/>
    </edge>
    <edge id=":42435392_4" function="internal">
        <lane id=":42435392_4_0" index="0" speed="20.83" length="5.00" shape="282.56,138.57 283.03,139.86 282.98,140.99 282.40,141.96 281.29,142.77"/>
    </edge>
    <edge id=":42435395_0" function="internal">
        <lane id=":42435395_0_0" index="0" speed="20.83" length="5.06" shape="411.42,76.59 410.59,75.48 409.61,74.90 408.47,74.85 407.16,75.32"/>
    </edge>
    <edge id=":42435395_1" function="internal">
        <lane id=":42435395_1_0" index="0" speed="27.78" length="6.29" shape="411.42,76.59 408.39,71.11"/>
        <lane id=":42435395_1_1" index="1" speed="27.78" length="6.29" shape="414.32,75.01 411.26,69.49"/>
    </edge>
    <edge id=":42435395_3" function="internal">
        <lane id=":42435395_3_0" index="0" speed="13.89" length="9.54" shape="415.58,70.81 407.16,75.32"/>
    </edge>
    <edge id=":42435395_4" function="internal">
        <lane id=":42435395_4_0" index="0" speed="20.83" length="5.12" shape="415.58,70.81 414.28,71.28 413.13,71.22 412.12,70.62 411.26,69.49"/>
    </edge>
    <edge id=":42437174_0" function="internal">
        <lane id=":42437174_0_0" index="0" speed="13.89" length="4.82" shape="43.04,373.62 41.56,373.48 40.80,372.96 40.77,372.03 41.47,370.72"/>
    </edge>
    <edge id=":42439486_0" function="internal">
        <lane id=":42439486_0_0" index="0" speed="20.83" length="5.00" shape="257.88,440.76 258.69,441.87 259.67,442.44 260.79,442.49 262.08,442.02"/>
    </edge>
    <edge id=":42439486_1" function="internal">
        <lane id=":42439486_1_0" index="0" speed="27.78" length="6.20" shape="257.88,440.76 260.83,446.22"/>
        <lane id=":42439486_1_1" index="1" speed="27.78" length="6.20" shape="254.98,442.33 257.92,447.79"/>
    </edge>
    <edge id=":42439486_3" function="internal">
        <lane id=":42439486_3_0" index="0" speed="13.89" length="9.50" shape="253.72,446.53 262.08,442.02"/>
    </edge>
    <edge id=":42439486_4" function="internal">
        <lane id=":42439486_4_0" index="0" speed="20.83" length="5.01" shape="253.72,446.53 255.00,446.06 256.13,446.11 257.11,446.69 257.92,447.79"/>
    </edge>
    <edge id=":42439488_0" function="internal">
        <lane id=":42439488_0_0" index="0" speed="20.83" length="5.00" shape="406.10,360.84 406.91,361.94 407.89,362.52 409.01,362.57 410.30,362.09"/>
    </edge>
    <edge id=":42439488_1" function="internal">
        <lane id=":42439488_1_0" index="0" speed="27.78" length="6.20" shape="406.10,360.84 409.04,366.30"/>
        <lane id=":42439488_1_1" index="1" speed="27.78" length="6.20" shape="403.20,362.40 406.14,367.86"/>
    </edge>
    <edge id=":42439488_3" function="internal">
        <lane id=":42439488_3_0" index="0" speed="13.89" length="9.50" shape="401.94,366.60 410.30,362.09"/>
    </edge>
    <edge id=":42439488_4" function="internal">
        <lane id=":42439488_4_0" index="0" speed="20.83" length="5.00" shape="401.94,366.60 403.22,366.13 404.35,366.18 405.32,366.76 406.14,367.86"/>
    </edge>
    <edge id=":42439489_0" function="internal">
        <lane id=":42439489_0_0" index="0" speed="27.78" length="6.20" shape="532.15,299.92 529.20,294.46"/>
        <lane id=":42439489_0_1" index="1" speed="27.78" length="6.20" shape="535.05,298.35 532.11,292.89"/>
    </edge>
    <edge id=":42439489_2" function="internal">
        <lane id=":42439489_2_0" index="0" speed="20.83" length="5.00" shape="535.05,298.35 534.58,297.06 534.63,295.93 535.21,294.96 536.31,294.15"/>
    </edge>
    <edge id=":42439489_3" function="internal">
        <lane id=":42439489_3_0" index="0" speed="20.83" length="5.00" shape="527.95,298.66 529.05,297.84 529.62,296.87 529.68,295.74 529.20,294.46"/>
    </edge>
    <edge id=":42439489_4" function="internal">
        <lane id=":42439489_4_0" index="0" speed="13.89" length="9.50" shape="527.95,298.66 536.31,294.15"/>
    </edge>
    <edge id=":42443817_0" function="internal">
        <lane id=":42443817_0_0" index="0" speed="20.83" length="5.03" shape="332.07,582.17 332.87,583.30 333.83,583.90 334.96,583.96 336.26,583.49"/>
    </edge>
    <edge id=":42443817_1" function="internal">
        <lane id=":42443817_1_0" index="0" speed="27.78" length="6.37" shape="332.07,582.17 334.94,587.88"/>
        <lane id=":42443817_1_1" index="1" speed="27.78" length="6.37" shape="329.13,583.67 331.99,589.35"/>
    </edge>
    <edge id=":42443817_3" function="internal">
        <lane id=":42443817_3_0" index="0" speed="13.89" length="9.59" shape="327.81,588.02 336.26,583.49"/>
    </edge>
    <edge id=":42443817_4" function="internal">
        <lane id=":42443817_4_0" index="0" speed="20.83" length="5.04" shape="327.81,588.02 329.11,587.54 330.24,587.61 331.20,588.21 331.99,589.35"/>
    </edge>
    <edge id=":42443818_0" function="internal">
        <lane id=":42443818_0_0" index="0" speed="20.83" length="5.02" shape="482.08,501.81 482.90,502.91 483.87,503.49 485.00,503.55 486.29,503.08"/>
    </edge>
    <edge id=":42443818_1" function="internal">
        <lane id=":42443818_1_0" index="0" speed="27.78" length="6.22" shape="482.08,501.81 485.03,507.28"/>
        <lane id=":42443818_1_1" index="1" speed="27.78" length="6.22" shape="479.18,503.37 482.13,508.84"/>
    </edge>
    <edge id=":42443818_3" function="internal">
        <lane id=":42443818_3_0" index="0" speed="13.89" length="9.51" shape="477.91,507.57 486.29,503.08"/>
    </edge>
    <edge id=":42443818_4" function="internal">
        <lane id=":42443818_4_0" index="0" speed="20.83" length="5.01" shape="477.91,507.57 479.20,507.10 480.33,507.15 481.31,507.74 482.13,508.84"/>
    </edge>
    <edge id=":42443819_0" function="internal">
        <lane id=":42443819_0_0" index="0" speed="27.78" length="6.26" shape="608.58,441.11 605.61,435.61"/>
        <lane id=":42443819_0_1" index="1" speed="27.78" length="6.26" shape="611.49,439.55 608.51,434.04"/>
    </edge>
    <edge id=":42443819_2" function="internal">
        <lane id=":42443819_2_0" index="0" speed="20.83" length="5.02" shape="611.49,439.55 611.01,438.26 611.07,437.13 611.66,436.16 612.78,435.36"/>
    </edge>
    <edge id=":42443819_3" function="internal">
        <lane id=":42443819_3_0" index="0" speed="20.83" length="5.01" shape="604.35,439.81 605.46,439.00 606.04,438.02 606.09,436.90 605.61,435.61"/>
    </edge>
    <edge id=":42443819_4" function="internal">
        <lane id=":42443819_4_0" index="0" speed="13.89" length="9.53" shape="604.35,439.81 612.78,435.36"/>
    </edge>
    <edge id=":42446161_0" function="internal">
        <lane id=":42446161_0_0" index="0" speed="20.83" length="5.02" shape="184.05,297.20 182.95,298.02 182.37,299.00 182.32,300.13 182.80,301.42"/>
    </edge>
    <edge id=":42446161_1" function="internal">
        <lane id=":42446161_1_0" index="0" speed="13.89" length="9.51" shape="184.05,297.20 175.69,301.74"/>
    </edge>
    <edge id=":42446161_2" function="internal">
        <lane id=":42446161_2_0" index="0" speed="13.89" length="4.82" shape="184.05,297.20 182.57,297.07 181.82,296.54 181.79,295.62 182.48,294.30"/>
    </edge>
    <edge id=":42446161_3" function="internal">
        <lane id=":42446161_3_0" index="0" speed="20.83" length="5.00" shape="178.28,293.05 179.10,294.15 180.07,294.73 181.20,294.78 182.48,294.30"/>
    </edge>
    <edge id=":42446161_4" function="internal">
        <lane id=":42446161_4_0" index="0" speed="27.78" length="9.51" shape="178.28,293.05 182.80,301.42"/>
        <lane id=":42446161_4_1" index="1" speed="27.78" length="9.51" shape="175.38,294.62 179.89,302.99"/>
    </edge>
    <edge id=":42446161_6" function="internal">
        <lane id=":42446161_6_0" index="0" speed="20.83" length="7.86" shape="175.38,294.62 176.54,297.18 176.98,299.22 176.69,300.74 175.69,301.74"/>
    </edge>
    <edge id=":42446161_7" function="internal">
        <lane id=":42446161_7_0" index="0" speed="13.89" length="9.51" shape="174.12,298.83 182.48,294.30"/>
    </edge>
    <edge id=":42446161_8" function="internal">
        <lane id=":42446161_8_0" index="0" speed="20.83" length="7.85" shape="174.12,298.83 175.51,298.54 176.93,299.13 178.39,300.62 179.89,302.99"/>
    </edge>
    <edge id=":42446161_9" function="internal">
        <lane id=":42446161_9_0" index="0" speed="13.89" length="4.82" shape="174.12,298.83 175.60,298.97 176.36,299.50 176.39,300.42 175.69,301.74"/>
    </edge>
    <edge id=":42446164_0" function="internal">
        <lane id=":42446164_0_0" index="0" speed="20.83" length="5.00" shape="224.19,371.72 223.09,372.53 222.51,373.51 222.46,374.64 222.94,375.92"/>
    </edge>
    <edge id=":42446164_1" function="internal">
        <lane id=":42446164_1_0" index="0" speed="13.89" length="9.50" shape="224.19,371.72 215.83,376.23"/>
    </edge>
    <edge id=":42446164_2" function="internal">
        <lane id=":42446164_2_0" index="0" speed="27.78" length="6.20" shape="219.99,370.46 222.94,375.92"/>
        <lane id=":42446164_2_1" index="1" speed="27.78" length="6.20" shape="217.09,372.03 220.03,377.49"/>
    </edge>
    <edge id=":42446164_4" function="internal">
        <lane id=":42446164_4_0" index="0" speed="20.83" length="5.00" shape="217.09,372.03 217.56,373.31 217.51,374.44 216.93,375.41 215.83,376.23"/>
    </edge>
    <edge id=":42447199_0" function="internal">
        <lane id=":42447199_0_0" index="0" speed="20.83" length="5.00" shape="453.83,154.57 453.01,153.46 452.04,152.89 450.91,152.84 449.62,153.31"/>
    </edge>
    <edge id=":42447199_1" function="internal">
        <lane id=":42447199_1_0" index="0" speed="27.78" length="9.51" shape="453.83,154.57 449.30,146.21"/>
        <lane id=":42447199_1_1" index="1" speed="27.78" length="9.51" shape="456.73,153.00 452.20,144.63"/>
    </edge>
    <edge id=":42447199_3" function="internal">
        <lane id=":42447199_3_0" index="0" speed="20.83" length="7.86" shape="456.73,153.00 455.57,150.44 455.13,148.40 455.41,146.88 456.41,145.88"/>
    </edge>
    <edge id=":42447199_4" function="internal">
        <lane id=":42447199_4_0" index="0" speed="13.89" length="9.50" shape="457.98,148.78 449.62,153.31"/>
    </edge>
    <edge id=":42447199_5" function="internal">
        <lane id=":42447199_5_0" index="0" speed="20.83" length="7.85" shape="457.98,148.78 456.60,149.08 455.18,148.48 453.71,147.00 452.20,144.63"/>
    </edge>
    <edge id=":42447199_6" function="internal">
        <lane id=":42447199_6_0" index="0" speed="13.89" length="4.82" shape="457.98,148.78 456.50,148.65 455.74,148.12 455.71,147.20 456.41,145.88"/>
    </edge>
    <edge id=":42447199_7" function="internal">
        <lane id=":42447199_7_0" index="0" speed="20.83" length="5.00" shape="448.05,150.41 449.15,149.59 449.73,148.62 449.78,147.49 449.30,146.21"/>
    </edge>
    <edge id=":42447199_8" function="internal">
        <lane id=":42447199_8_0" index="0" speed="13.89" length="9.50" shape="448.05,150.41 456.41,145.88"/>
    </edge>
    <edge id=":42447199_9" function="internal">
        <lane id=":42447199_9_0" index="0" speed="13.89" length="4.82" shape="448.05,150.41 449.53,150.55 450.29,151.07 450.32,152.00 449.62,153.31"/>
    </edge>
    <edge id=":42447201_0" function="internal">
        <lane id=":42447201_0_0" index="0" speed="20.83" length="5.00" shape="494.27,229.66 493.45,228.55 492.48,227.98 491.35,227.92 490.07,228.40"/>
    </edge>
    <edge id=":42447201_1" function="internal">
        <lane id=":42447201_1_0" index="0" speed="27.78" length="6.20" shape="494.27,229.66 491.33,224.20"/>
        <lane id=":42447201_1_1" index="1" speed="27.78" length="6.20" shape="497.17,228.09 494.23,222.63"/>
    </edge>
    <edge id=":42447201_3" function="internal">
        <lane id=":42447201_3_0" index="0" speed="13.89" length="9.50" shape="498.43,223.89 490.07,228.40"/>
    </edge>
    <edge id=":42447201_4" function="internal">
        <lane id=":42447201_4_0" index="0" speed="20.83" length="5.00" shape="498.43,223.89 497.15,224.36 496.02,224.31 495.05,223.73 494.23,222.63"/>
    </edge>
    <edge id=":42449833_0" function="internal">
        <lane id=":42449833_0_0" index="0" speed="20.83" length="5.00" shape="372.42,291.82 371.32,292.63 370.74,293.60 370.69,294.73 371.16,296.02"/>
    </edge>
    <edge id=":42449833_1" function="internal">
        <lane id=":42449833_1_0" index="0" speed="13.89" length="9.50" shape="372.42,291.82 364.06,296.32"/>
    </edge>
    <edge id=":42449833_2" function="internal">
        <lane id=":42449833_2_0" index="0" speed="27.78" length="6.20" shape="368.22,290.56 371.16,296.02"/>
        <lane id=":42449833_2_1" index="1" speed="27.78" length="6.20" shape="365.32,292.12 368.26,297.58"/>
    </edge>
    <edge id=":42449833_4" function="internal">
        <lane id=":42449833_4_0" index="0" speed="20.83" length="5.00" shape="365.32,292.12 365.79,293.41 365.74,294.54 365.16,295.51 364.06,296.32"/>
    </edge>
    <edge id=":42450071_0" function="internal">
        <lane id=":42450071_0_0" index="0" speed="13.89" length="4.82" shape="587.94,74.61 589.42,74.74 590.18,75.27 590.21,76.19 589.51,77.51"/>
    </edge>
    <edge id=":42458342_0" function="internal">
        <lane id=":42458342_0_0" index="0" speed="20.83" length="5.02" shape="332.10,216.98 331.00,217.80 330.42,218.78 330.37,219.91 330.85,221.20"/>
    </edge>
    <edge id=":42458342_1" function="internal">
        <lane id=":42458342_1_0" index="0" speed="13.89" length="9.51" shape="332.10,216.98 323.74,221.52"/>
    </edge>
    <edge id=":42458342_2" function="internal">
        <lane id=":42458342_2_0" index="0" speed="13.89" length="2.41" shape="332.10,216.98 330.62,216.85 329.87,216.32"/>
    </edge>
    <edge id=":42458342_10" function="internal">
        <lane id=":42458342_10_0" index="0" speed="13.89" length="2.41" shape="329.87,216.32 329.84,215.40 330.53,214.08"/>
    </edge>
    <edge id=":42458342_3" function="internal">
        <lane id=":42458342_3_0" index="0" speed="20.83" length="5.00" shape="326.33,212.83 327.15,213.93 328.12,214.51 329.25,214.56 330.53,214.08"/>
    </edge>
    <edge id=":42458342_4" function="internal">
        <lane id=":42458342_4_0" index="0" speed="27.78" length="9.51" shape="326.33,212.83 330.85,221.20"/>
        <lane id=":42458342_4_1" index="1" speed="27.78" length="9.51" shape="323.43,214.39 327.94,222.77"/>
    </edge>
    <edge id=":42458342_6" function="internal">
        <lane id=":42458342_6_0" index="0" speed="20.83" length="3.13" shape="323.43,214.39 324.59,216.96 324.65,217.27"/>
    </edge>
    <edge id=":42458342_11" function="internal">
        <lane id=":42458342_11_0" index="0" speed="20.83" length="4.73" shape="324.65,217.27 325.03,219.00 324.74,220.52 323.74,221.52"/>
    </edge>
    <edge id=":42458342_7" function="internal">
        <lane id=":42458342_7_0" index="0" speed="13.89" length="9.52" shape="322.17,218.62 330.53,214.08"/>
    </edge>
    <edge id=":42458342_8" function="internal">
        <lane id=":42458342_8_0" index="0" speed="20.83" length="4.73" shape="322.17,218.62 323.55,218.32 324.98,218.91 326.22,220.17"/>
    </edge>
    <edge id=":42458342_9" function="internal">
        <lane id=":42458342_9_0" index="0" speed="13.89" length="2.41" shape="322.17,218.62 323.65,218.75 324.40,219.28"/>
    </edge>
    <edge id=":42458342_12" function="internal">
        <lane id=":42458342_12_0" index="0" speed="20.83" length="3.12" shape="326.22,220.17 326.44,220.40 327.94,222.77"/>
    </edge>
    <edge id=":42458342_13" function="internal">
        <lane id=":42458342_13_0" index="0" speed="13.89" length="2.41" shape="324.40,219.28 324.43,220.20 323.74,221.52"/>
    </edge>
    <edge id=":596776442_0" function="internal">
        <lane id=":596776442_0_0" index="0" speed="27.78" length="6.21" shape="382.69,380.51 379.75,375.04"/>
        <lane id=":596776442_0_1" index="1" speed="27.78" length="6.21" shape="385.60,378.94 382.66,373.47"/>
    </edge>
    <edge id=":596776442_2" function="internal">
        <lane id=":596776442_2_0" index="0" speed="20.83" length="5.01" shape="385.60,378.94 385.12,377.65 385.18,376.52 385.75,375.55 386.86,374.73"/>
    </edge>
    <edge id=":596776442_3" function="internal">
        <lane id=":596776442_3_0" index="0" speed="20.83" length="5.01" shape="378.49,379.25 379.59,378.43 380.17,377.46 380.22,376.33 379.75,375.04"/>
    </edge>
    <edge id=":596776442_4" function="internal">
        <lane id=":596776442_4_0" index="0" speed="13.89" length="9.50" shape="378.49,379.25 386.86,374.73"/>
    </edge>
    <edge id=":596776474_0" function="internal">
        <lane id=":596776474_0_0" index="0" speed="20.83" length="5.00" shape="344.89,310.18 344.07,309.08 343.10,308.50 341.97,308.45 340.69,308.92"/>
    </edge>
    <edge id=":596776474_1" function="internal">
        <lane id=":596776474_1_0" index="0" speed="27.78" length="6.21" shape="344.89,310.18 341.95,304.71"/>
        <lane id=":596776474_1_1" index="1" speed="27.78" length="6.21" shape="347.79,308.62 344.85,303.15"/>
    </edge>
    <edge id=":596776474_3" function="internal">
        <lane id=":596776474_3_0" index="0" speed="13.89" length="9.50" shape="349.05,304.41 340.69,308.92"/>
    </edge>
    <edge id=":596776474_4" function="internal">
        <lane id=":596776474_4_0" index="0" speed="20.83" length="5.00" shape="349.05,304.41 347.77,304.88 346.64,304.83 345.67,304.25 344.85,303.15"/>
    </edge>
    <edge id=":596776497_0" function="internal">
        <lane id=":596776497_0_0" index="0" speed="20.83" length="5.00" shape="304.68,235.38 303.86,234.28 302.89,233.70 301.76,233.65 300.48,234.13"/>
    </edge>
    <edge id=":596776497_1" function="internal">
        <lane id=":596776497_1_0" index="0" speed="27.78" length="9.52" shape="304.68,235.38 300.17,227.00"/>
        <lane id=":596776497_1_1" index="1" speed="27.78" length="9.52" shape="307.58,233.82 303.07,225.43"/>
    </edge>
    <edge id=":596776497_3" function="internal">
        <lane id=":596776497_3_0" index="0" speed="20.83" length="3.14" shape="307.58,233.82 306.42,231.26 306.36,230.94"/>
    </edge>
    <edge id=":596776497_10" function="internal">
        <lane id=":596776497_10_0" index="0" speed="20.83" length="4.73" shape="306.36,230.94 305.99,229.21 306.27,227.69 307.27,226.69"/>
    </edge>
    <edge id=":596776497_4" function="internal">
        <lane id=":596776497_4_0" index="0" speed="13.89" length="9.52" shape="308.85,229.59 300.48,234.13"/>
    </edge>
    <edge id=":596776497_5" function="internal">
        <lane id=":596776497_5_0" index="0" speed="20.83" length="4.73" shape="308.85,229.59 307.46,229.89 306.03,229.29 304.79,228.03"/>
    </edge>
    <edge id=":596776497_6" function="internal">
        <lane id=":596776497_6_0" index="0" speed="13.89" length="2.41" shape="308.85,229.59 307.37,229.45 306.61,228.93"/>
    </edge>
    <edge id=":596776497_11" function="internal">
        <lane id=":596776497_11_0" index="0" speed="20.83" length="3.12" shape="304.79,228.03 304.57,227.81 303.07,225.43"/>
    </edge>
    <edge id=":596776497_12" function="internal">
        <lane id=":596776497_12_0" index="0" speed="13.89" length="2.41" shape="306.61,228.93 306.58,228.00 307.27,226.69"/>
    </edge>
    <edge id=":596776497_7" function="internal">
        <lane id=":596776497_7_0" index="0" speed="20.83" length="5.03" shape="298.90,231.23 300.01,230.40 300.59,229.43 300.64,228.29 300.17,227.00"/>
    </edge>
    <edge id=":596776497_8" function="internal">
        <lane id=":596776497_8_0" index="0" speed="13.89" length="9.52" shape="298.90,231.23 307.27,226.69"/>
    </edge>
    <edge id=":596776497_9" function="internal">
        <lane id=":596776497_9_0" index="0" speed="13.89" length="2.41" shape="298.90,231.23 300.38,231.36 301.14,231.89"/>
    </edge>
    <edge id=":596776497_13" function="internal">
        <lane id=":596776497_13_0" index="0" speed="13.89" length="2.41" shape="301.14,231.89 301.17,232.81 300.48,234.13"/>
    </edge>
    <edge id=":596776534_0" function="internal">
        <lane id=":596776534_0_0" index="0" speed="20.83" length="5.01" shape="262.27,156.48 261.45,155.38 260.48,154.80 259.35,154.74 258.06,155.21"/>
    </edge>
    <edge id=":596776534_1" function="internal">
        <lane id=":596776534_1_0" index="0" speed="27.78" length="6.21" shape="262.27,156.48 259.33,151.01"/>
        <lane id=":596776534_1_1" index="1" speed="27.78" length="6.21" shape="265.17,154.92 262.23,149.45"/>
    </edge>
    <edge id=":596776534_3" function="internal">
        <lane id=":596776534_3_0" index="0" speed="13.89" length="9.50" shape="266.44,150.72 258.06,155.21"/>
    </edge>
    <edge id=":596776534_4" function="internal">
        <lane id=":596776534_4_0" index="0" speed="20.83" length="5.01" shape="266.44,150.72 265.15,151.19 264.02,151.14 263.05,150.56 262.23,149.45"/>
    </edge>
    <edge id=":596776594_0" function="internal">
        <lane id=":596776594_0_0" index="0" speed="27.78" length="6.21" shape="458.48,521.51 455.54,516.04"/>
        <lane id=":596776594_0_1" index="1" speed="27.78" length="6.21" shape="461.39,519.95 458.45,514.48"/>
    </edge>
    <edge id=":596776594_2" function="internal">
        <lane id=":596776594_2_0" index="0" speed="20.83" length="5.00" shape="461.39,519.95 460.91,518.66 460.97,517.53 461.55,516.56 462.65,515.75"/>
    </edge>
    <edge id=":596776594_3" function="internal">
        <lane id=":596776594_3_0" index="0" speed="20.83" length="5.00" shape="454.27,520.24 455.38,519.43 455.96,518.46 456.01,517.33 455.54,516.04"/>
    </edge>
    <edge id=":596776594_4" function="internal">
        <lane id=":596776594_4_0" index="0" speed="13.89" length="9.50" shape="454.27,520.24 462.65,515.75"/>
    </edge>
    <edge id=":596776624_0" function="internal">
        <lane id=":596776624_0_0" index="0" speed="20.83" length="5.00" shape="420.41,450.67 419.59,449.57 418.62,448.99 417.49,448.94 416.21,449.41"/>
    </edge>
    <edge id=":596776624_1" function="internal">
        <lane id=":596776624_1_0" index="0" speed="27.78" length="6.21" shape="420.41,450.67 417.47,445.20"/>
        <lane id=":596776624_1_1" index="1" speed="27.78" length="6.21" shape="423.31,449.11 420.37,443.64"/>
    </edge>
    <edge id=":596776624_3" function="internal">
        <lane id=":596776624_3_0" index="0" speed="13.89" length="9.50" shape="424.57,444.90 416.21,449.41"/>
    </edge>
    <edge id=":596776624_4" function="internal">
        <lane id=":596776624_4_0" index="0" speed="20.83" length="5.00" shape="424.57,444.90 423.29,445.38 422.16,445.32 421.19,444.75 420.37,443.64"/>
    </edge>

    <edge id="-5673236#0" from="42446161" to="42437174" priority="4" type="highway.residential">
        <lane id="-5673236#0_0" index="0" speed="13.89" length="150.88" shape="175.69,301.74 43.04,373.62"/>
    </edge>
    <edge id="-5673236#1" from="596776497" to="42446161" priority="4" type="highway.residential">
        <lane id="-5673236#1_0" index="0" speed="13.89" length="132.41" shape="300.48,234.13 184.05,297.20"/>
    </edge>
    <edge id="-5673236#2" from="42458342" to="596776497" priority="4" type="highway.residential">
        <lane id="-5673236#2_0" index="0" speed="13.89" length="16.94" shape="323.74,221.52 308.85,229.59"/>
    </edge>
    <edge id="-5673236#3" from="42447199" to="42458342" priority="4" type="highway.residential">
        <lane id="-5673236#3_0" index="0" speed="13.89" length="133.66" shape="449.62,153.31 332.10,216.98"/>
    </edge>
    <edge id="-5673236#4" from="42450071" to="42447199" priority="4" type="highway.residential">
        <lane id="-5673236#4_0" index="0" speed="13.89" length="149.60" shape="589.51,77.51 457.98,148.78"/>
    </edge>
    <edge id="194933371#0" from="42447206" to="42443819" priority="7" type="highway.secondary" spreadType="center">
        <lane id="194933371#0_0" index="0" speed="27.78" length="75.50" shape="644.30,507.63 608.58,441.11"/>
        <lane id="194933371#0_1" index="1" speed="27.78" length="75.50" shape="647.20,506.07 611.49,439.55"/>
    </edge>
    <edge id="194933371#1" from="42443819" to="42435230" priority="7" type="highway.secondary" spreadType="center">
        <lane id="194933371#1_0" index="0" speed="27.78" length="74.61" shape="605.61,435.61 570.05,370.01"/>
        <lane id="194933371#1_1" index="1" speed="27.78" length="74.61" shape="608.51,434.04 572.95,368.44"/>
    </edge>
    <edge id="194933371#2" from="42435230" to="42439489" priority="7" type="highway.secondary" spreadType="center">
        <lane id="194933371#2_0" index="0" speed="27.78" length="73.47" shape="567.09,364.55 532.15,299.92"/>
        <lane id="194933371#2_1" index="1" speed="27.78" length="73.47" shape="570.00,362.98 535.05,298.35"/>
    </edge>
    <edge id="194933371#3" from="42439489" to="42447201" priority="7" type="highway.secondary" spreadType="center">
        <lane id="194933371#3_0" index="0" speed="27.78" length="73.62" shape="529.20,294.46 494.27,229.66"/>