<?xml version="1.0" encoding="UTF-8"?>

<!-- generated on 08/11/14 13:16:51 by SUMO duarouter Version 0.20.0
<?xml version="1.0" encoding="UTF-8"?>

<configuration xmlns:xsi="http://www.w3.org/2001/XMLSchema-instance" xsi:noNamespaceSchemaLocation="http://sumo-sim.org/xsd/duarouterConfiguration.xsd">

    <input>
        <net-file value="red.net.xml"/>
        <trip-files value="trips.trips.xml"/>
    </input>

    <output>
        <output-file value="red.rou.xml"/>
    </output>

    <processing>
        <ignore-errors value="true"/>
    </processing>

    <time>
        <begin value="0"/>
        <end value="300.0"/>
    </time>

</configuration>
-->

<routes>
    <vehicle id="0" depart="0.00" departLane="best" departPos="random" departSpeed="max">
        <route edges="195743181#0 195743181#1 -5673236#0"/>
    </vehicle>
    <vehicle id="1" depart="0.50" departLane="best" departPos="random" departSpeed="max">
        <route edges="195743181#0 5670354#4"/>
    </vehicle>
    <vehicle id="2" depart="1.00" departLane="best" departPos="random" departSpeed="max">
        <route edges="5670811#0 5670811#1 196117048#2 196117048#3 -5673236#1 -5673236#0"/>
    </vehicle>
    <vehicle id="3" depart="1.50" departLane="best" departPos="random" departSpeed="max">
        <route edges="46240373#0 46240373#1 46240373#2 46240373#3 195743181#3 195743181#4"/>
    </vehicle>
    <vehicle id="4" depart="2.00" departLane="best" departPos="random" departSpeed="max">
        <route edges="195743181#4 195743181#5 5671162#1 196117048#0 196117048#1 196117048#2 196117048#3 196117048#4 196117048#5"/>
    </vehicle>
    <vehicle id="5" depart="2.50" departLane="best" departPos="random" departSpeed="max">
        <route edges="5673236#0 195743181#2 195743181#3 5670811#1 5670811#2 68674959#4 68674959#5 68674959#6"/>
    </vehicle>
    <vehicle id="6" depart="3.00" departLane="best" departPos="random" departSpeed="max">
        <route edges="5670354#0 5670354#1 68674959#1 -5673236#2 -5673236#1 195743181#2 195743181#3 195743181#4 226015234#1"/>
    </vehicle>
    <vehicle id="7" depart="3.50" departLane="best" departPos="random" departSpeed="max">
        <route edges="226015233#0 226015233#1 196117048#1 5670811#2 5670811#3 194933371#3 46240373#1"/>
    </vehicle>
    <vehicle id="8" depart="4.00" departLane="best" departPos="random" departSpeed="max">
        <route edges="-5673236#3 -5673236#2 196117048#4 196117048#5"/>
    </vehicle>
    <vehicle id="9" depart="4.50" departLane="best" departPos="random" departSpeed="max">
        <route edges="195743181#0 195743181#1 195743181#2 195743181#3 195743181#4 226015234#1"/>
    </vehicle>
    <vehicle id="10" depart="5.00" departLane="best" departPos="random" departSpeed="max">
        <route edges="5670354#0 5670354#1 68674959#1 68674959#2 68674959#3 68674959#4"/>
    </vehicle>
    <vehicle id="11" depart="5.50" departLane="best" departPos="random" departSpeed="max">
        <route edges="194933371#0 194933371#1 194933371#2 194933371#3 46240373#1 46240373#2 196117048#3 -5673236#1 -5673236#0"/>
    </vehicle>
    <vehicle id="12" depart="6.00" departLane="best" departPos="random" departSpeed="max">
        <route edges="-5673236#4 196117041#0 5670354#1 5670354#2 5670354#3 5670354#4"/>
    </vehicle>
    <vehicle id="13" depart="6.50" departLane="best" departPos="random" departSpeed="max">
        <route edges="196117048#1 196117048#2"/>
    </vehicle>
    <vehicle id="14" depart="7.00" departLane="best" departPos="random" departSpeed="max">
        <route edges="5670811#0 5670811#1 196117048#2 196117048#3 -5673236#1 -5673236#0"/>
    </vehicle>
    <vehicle id="15" depart="7.50" departLane="best" departPos="random" departSpeed="max">
        <route edges="-5673236#4 -5673236#3 -5673236#2 -5673236#1 195743181#2 195743181#3 195743181#4 195743181#5 195743181#6"/>
    </vehicle>
    <vehicle id="16" depart="8.00" departLane="best" departPos="random" departSpeed="max">
        <route edges="68674959#0 68674959#1 68674959#2 68674959#3 68674959#4 226015233#1 196117048#1"/>
    </vehicle>
    <vehicle id="17" depart="8.50" departLane="best" departPos="random" departSpeed="max">
        <route edges="5673236#0 195743181#2 195743181#3 5670811#1 5670811#2 68674959#4 68674959#5"/>
    </vehicle>
    <vehicle id="18" depart="9.00" departLane="best" departPos="random" departSpeed="max">
        <route edges="5670811#0 5670811#1 5670811#2 68674959#4 68674959#5 68674959#6"/>
    </vehicle>
    <vehicle id="19" depart="9.50" departLane="best" departPos="random" departSpeed="max">
        <route edges="5670811#0 5670811#1 196117048#2 196117048#3 -5673236#1 -5673236#0"/>
    </vehicle>
    <vehicle id="20" depart="10.00" departLane="best" departPos="random" departSpeed="max">
        <route edges="5670811#0 5670811#1 196117048#2 196117048#3 196117048#4 196117048#5"/>
    </vehicle>
    <vehicle id="21" depart="10.50" departLane="best" departPos="random" departSpeed="max">
        <route edges="226015234#0 195743181#5 5671162#1 196116993#0 68674959#6"/>
    </vehicle>
    <vehicle id="22" depart="11.00" departLane="best" departPos="random" departSpeed="max">
        <route edges="46240372 226015233#0 226015233#1 226015234#0 195743181#5 195743181#6"/>
    </vehicle>
    <vehicle id="23" depart="11.50" departLane="best" departPos="random" departSpeed="max">
        <route edges="5671162#0 5671162#1 196117048#0 196117048#1 196117048#2 196117048#3 196117048#4 196117048#5"/>
    </vehicle>
    <vehicle id="24" depart="12.00" departLane="best" departPos="random" departSpeed="max">
        <route edges="194933371#4 196117041#0 5670354#1 5670354#2 196117048#5"/>
    </vehicle>
    <vehicle id="25" depart="12.50" departLane="best" departPos="random" departSpeed="max">
        <route edges="5670354#0 5670354#1 68674959#1 -5673236#2 -5673236#1 -5673236#0"/>
    </vehicle>
    <vehicle id="26" depart="13.00" departLane="best" departPos="random" departSpeed="max">
        <route edges="46240373#0 194933371#4 196117041#0 196117041#1"/>
    </vehicle>
    <vehicle id="27" depart="13.50" departLane="best" departPos="random" departSpeed="max">
        <route edges="5670354#0 5670354#1 68674959#1 -5673236#2 -5673236#1 195743181#2 195743181#3 195743181#4"/>
    </vehicle>
    <vehicle id="28" depart="14.00" departLane="best" departPos="random" departSpeed="max">
        <route edges="5673236#0 5673236#1 5673236#2 5673236#3 5673236#4"/>
    </vehicle>
    <vehicle id="29" depart="14.50" departLane="best" departPos="random" departSpeed="max">
        <route edges="46240373#1 68674959#3 68674959#4 68674959#5 196116993#1 196116994"/>
    </vehicle>
    <vehicle id="30" depart="15.00" departLane="best" departPos="random" departSpeed="max">
        <route edges="68674959#0 68674959#1 -5673236#2 -5673236#1 195743181#2 195743181#3 195743181#4 195743181#5"/>
    </vehicle>
    <vehicle id="31" depart="15.50" departLane="best" departPos="random" departSpeed="max">
        <route edges="195743181#0 195743181#1 195743181#2 46240373#4"/>
    </vehicle>
    <vehicle id="32" depart="16.00" departLane="best" departPos="random" departSpeed="max">
        <route edges="46240205 196117048#0 196117048#1 196117048#2 46240373#3 46240373#4"/>
    </vehicle>
    <vehicle id="33" depart="16.50" departLane="best" departPos="random" departSpeed="max">
        <route edges="5673236#0 195743181#2 195743181#3 195743181#4 195743181#5 195743181#6"/>
    </vehicle>
    <vehicle id="34" depart="17.00" departLane="best" departPos="random" departSpeed="max">
        <route edges="5673236#0 5673236#1 196117048#4 196117048#5"/>
    </vehicle>
    <vehicle id="35" depart="17.50" departLane="best" departPos="random" departSpeed="max">
        <route edges="194933371#0 194933371#1 194933371#2 194933371#3 194933371#4 196117041#0 5670354#1 5670354#2 196117048#5"/>
    </vehicle>
    <vehicle id="36" depart="18.00" departLane="best" departPos="random" departSpeed="max">
        <route edges="68674959#3 68674959#4 68674959#5 68674959#6"/>
    </vehicle>
    <vehicle id="37" depart="18.50" departLane="best" departPos="random" departSpeed="max">
        <route edges="5673236#3 -5673236#3 -5673236#2 -5673236#1 195743181#2 195743181#3 195743181#4 226015234#1"/>
    </vehicle>
    <vehicle id="38" depart="19.00" departLane="best" departPos="random" departSpeed="max">
        <route edges="46240373#0 194933371#4 196117041#0 5670354#1 5670354#2 196117048#5"/>
    </vehicle>
    <vehicle id="39" depart="19.50" departLane="best" departPos="random" departSpeed="max">
        <route edges="5673236#0 195743181#2 195743181#3 5670811#1 5670811#2 68674959#4 68674959#5 196116993#1 196116994"/>
    </vehicle>
    <vehicle id="40" depart="20.00" departLane="best" departPos="random" departSpeed="max">
        <route edges="195743181#0 5670354#4"/>
    </vehicle>
    <vehicle id="41" depart="20.50" departLane="best" departPos="random" departSpeed="max">
        <route edges="46240205 196117048#0 196117048#1 196117048#2 196117048#3 196117048#4 5670354#3"/>
    </vehicle>
    <vehicle id="42" depart="21.00" departLane="best" departPos="random" departSpeed="max">
        <route edges="196117048#0 196117048#1 196117048#2 46240373#3 46240373#4"/>
    </vehicle>
    <vehicle id="43" depart="21.50" departLane="best" departPos="random" departSpeed="max">
        <route edges="196117048#0 196117048#1 5670811#2 5670811#3 5670811#4"/>
    </vehicle>
    <vehicle id="44" depart="22.00" departLane="best" departPos="random" departSpeed="max">
        <route edges="68674959#2 46240373#2 196117048#3 196117048#4 5670354#3 195743181#1"/>
    </vehicle>
    <vehicle id="45" depart="22.50" departLane="best" departPos="random" departSpeed="max">
        <route edges="5670354#0 5670354#1 68674959#1 68674959#2 68674959#3 5670811#3 5670811#4"/>
    </vehicle>
    <vehicle id="46" depart="23.00" departLane="best" departPos="random" departSpeed="max">
        <route edges="5671162#0 195743181#6"/>
    </vehicle>
    <vehicle id="47" depart="23.50" departLane="best" departPos="random" departSpeed="max">
        <route edges="5673236#0 5673236#1 5673236#2 5673236#3 -5673236#3"/>
    </vehicle>
    <vehicle id="48" depart="24.00" departLane="best" departPos="random" departSpeed="max">
        <route edges="46240373#0 194933371#4 196117041#0 196117041#1"/>
    </vehicle>
    <vehicle id="49" depart="24.50" departLane="best" departPos="random" departSpeed="max">
        <route edges="5671162#0 5671162#1 196117048#0 196117048#1 196117048#2 196117048#3 196117048#4 196117048#5"/>
    </vehicle>
    <vehicle id="50" depart="25.00" departLane="best" departPos="random" departSpeed="max">
        <route edges="-5673236#4 -5673236#3 68674959#2 68674959#3 68674959#4 68674959#5 196116993#1 196116994"/>
    </vehicle>
    <vehicle id="51" depart="25.50" departLane="best" departPos="random" departSpeed="max">
        <route edges="226015234#0 195743181#5 5671162#1 196117048#0 196117048#1 196117048#2 196117048#3 -5673236#1 -5673236#0"/>
    </vehicle>
    <vehicle id="52" depart="26.00" departLane="best" departPos="random" departSpeed="max">
        <route edges="46240373#0 46240373#1 46240373#2 46240373#3 46240373#4"/>
    </vehicle>
    <vehicle id="53" depart="26.50" departLane="best" departPos="random" departSpeed="max">
        <route edges="195743181#0 195743181#1 195743181#2 195743181#3 5670811#1 5670811#2 68674959#4 68674959#5 196116993#1 196116994"/>
    </vehicle>
    <vehicle id="54" depart="27.00" departLane="best" departPos="random" departSpeed="max">
        <route edges="195743181#0 195743181#1 5673236#1 5673236#2 5673236#3 196117041#0 196117041#1"/>
    </vehicle>
    <vehicle id="55" depart="27.50" departLane="best" departPos="random" departSpeed="max">
        <route edges="195743181#2 46240373#4"/>
    </vehicle>
    <vehicle id="56" depart="28.00" departLane="best" departPos="random" departSpeed="max">
        <route edges="68674959#4 226015233#1 196117048#1 196117048#2 46240373#3 46240373#4"/>
    </vehicle>
    <vehicle id="57" depart="28.50" departLane="best" departPos="random" departSpeed="max">
        <route edges="194933371#0 194933371#1 226015233#0 226015233#1 226015234#0 195743181#5 195743181#6"/>
    </vehicle>
    <vehicle id="58" depart="29.00" departLane="best" departPos="random" departSpeed="max">
        <route edges="5670811#0 5670811#1 196117048#2 196117048#3 -5673236#1 195743181#2"/>
    </vehicle>
    <vehicle id="59" depart="29.50" departLane="best" departPos="random" departSpeed="max">
        <route edges="5671162#0 5671162#1 196117048#0 196117048#1 196117048#2 46240373#3 46240373#4"/>
    </vehicle>
    <vehicle id="60" depart="30.00" departLane="best" departPos="random" departSpeed="max">
        <route edges="68674959#0 68674959#1 68674959#2 68674959#3 68674959#4"/>
    </vehicle>
    <vehicle id="61" depart="30.50" departLane="best" departPos="random" departSpeed="max">
        <route edges="195743181#0 5670354#4"/>
    </vehicle>
    <vehicle id="62" depart="31.00" departLane="best" departPos="random" departSpeed="max">
        <route edges="226015234#0 195743181#5 5671162#1 196117048#0 196117048#1 196117048#2 196117048#3 196117048#4 196117048#5"/>
    </vehicle>
    <vehicle id="63" depart="31.50" departLane="best" departPos="random" departSpeed="max">
        <route edges="194933371#0 194933371#1 194933371#2 194933371#3 194933371#4 196117041#0 196117041#1"/>
    </vehicle>
    <vehicle id="64" depart="32.00" departLane="best" departPos="random" departSpeed="max">
        <route edges="46240205 196117048#0 196117048#1 196117048#2 196117048#3 196117048#4 196117048#5"/>
    </vehicle>
    <vehicle id="65" depart="32.50" departLane="best" departPos="random" departSpeed="max">
        <route edges="5670354#0 5670354#1 5670354#2 196117048#5"/>
    </vehicle>
    <vehicle id="66" depart="33.00" departLane="best" departPos="random" departSpeed="max">
        <route edges="195743181#0 195743181#1 5673236#1 196117048#4"/>
    </vehicle>
    <vehicle id="67" depart="33.50" departLane="best" departPos="random" departSpeed="max">
        <route edges="46240372 194933371#2 194933371#3 194933371#4 196117041#0 5670354#1 5670354#2 196117048#5"/>
    </vehicle>
    <vehicle id="68" depart="34.00" departLane="best" departPos="random" departSpeed="max">
        <route edges="5670811#1 5670811#2 68674959#4 68674959#5 196116993#1 194933371#1 226015233#0"/>
    </vehicle>
    <vehicle id="69" depart="34.50" departLane="best" departPos="random" departSpeed="max">
        <route edges="5670811#0 5670811#1 196117048#2"/>
    </vehicle>
    <vehicle id="70" depart="35.00" departLane="best" departPos="random" departSpeed="max">
        <route edges="5670354#0 5670354#1 68674959#1 68674959#2"/>
    </vehicle>
    <vehicle id="71" depart="35.50" departLane="best" departPos="random" departSpeed="max">
        <route edges="5670811#0 5670811#1 5670811#2 68674959#4 68674959#5 196116993#1 196116994"/>
    </vehicle>
    <vehicle id="72" depart="36.00" departLane="best" departPos="random" departSpeed="max">
        <route edges="195743181#0 195743181#1 5673236#1 5673236#2 5673236#3 196117041#0 196117041#1"/>
    </vehicle>
    <vehicle id="73" depart="36.50" departLane="best" departPos="random" departSpeed="max">
        <route edges="5670354#3 195743181#1 5673236#1 5673236#2 5673236#3 196117041#0 196117041#1"/>
    </vehicle>
    <vehicle id="74" depart="37.00" departLane="best" departPos="random" departSpeed="max">
        <route edges="5671162#0 5671162#1 196117048#0 196117048#1 196117048#2 196117048#3 196117048#4 196117048#5"/>
    </vehicle>
    <vehicle id="75" depart="37.50" departLane="best" departPos="random" departSpeed="max">
        <route edges="196117041#0 5670354#1 5670354#2 196117048#5"/>
    </vehicle>
    <vehicle id="76" depart="38.00" departLane="best" departPos="random" departSpeed="max">
        <route edges="5670354#0 5670354#1 68674959#1 -5673236#2 -5673236#1 195743181#2 195743181#3 195743181#4 226015234#1"/>
    </vehicle>
    <vehicle id="77" depart="38.50" departLane="best" departPos="random" departSpeed="max">
        <route edges="5671162#0 5671162#1 196117048#0 196117048#1 5670811#2 5670811#3 5670811#4"/>
    </vehicle>
    <vehicle id="78" depart="39.00" departLane="best" departPos="random" departSpeed="max">
        <route edges="46240373#0 46240373#1 46240373#2 46240373#3 46240373#4"/>
    </vehicle>
    <vehicle id="79" depart="39.50" departLane="best" departPos="random" departSpeed="max">
        <route edges="46240373#0 46240373#1 68674959#3 68674959#4 226015233#1 226015234#0 226015234#1"/>
    </vehicle>
    <vehicle id="80" depart="40.00" departLane="best" departPos="random" departSpeed="max">
        <route edges="5670354#0 5670354#1 68674959#1 -5673236#2 -5673236#1 195743181#2 195743181#3 195743181#4"/>
    </vehicle>
    <vehicle id="81" depart="40.50" departLane="best" departPos="random" departSpeed="max">
        <route edges="195743181#0 195743181#1 195743181#2 195743181#3 195743181#4"/>
    </vehicle>
    <vehicle id="82" depart="41.00" departLane="best" departPos="random" departSpeed="max">
        <route edges="46240372 194933371#2 194933371#3 46240373#1 46240373#2 46240373#3 46240373#4"/>
    </vehicle>
    <vehicle id="83" depart="41.50" departLane="best" departPos="random" departSpeed="max">
        <route edges="46240373#0 46240373#1 68674959#3 68674959#4 226015233#1 226015234#0 195743181#5 5671162#1 196117048#0"/>
    </vehicle>
    <vehicle id="84" depart="42.00" departLane="best" departPos="random" departSpeed="max">
        <route edges="194933371#0 196116994"/>
    </vehicle>
    <vehicle id="85" depart="42.50" departLane="best" departPos="random" departSpeed="max">
        <route edges="5670811#0 5670811#1 196117048#2 196117048#3 5673236#2 68674959#2"/>
    </vehicle>
    <vehicle id="86" depart="43.00" departLane="best" departPos="random" departSpeed="max">
        <route edges="196117048#3 5673236#2 68674959#2 68674959#3 68674959#4 68674959#5 196116993#1 196116994"/>
    </vehicle>
    <vehicle id="87" depart="43.50" departLane="best" departPos="random" departSpeed="max">
        <route edges="5671162#0 5671162#1 196117048#0 196117048#1 196117048#2 196117048#3 5673236#2 5673236#3 196117041#0 196117041#1"/>
    </vehicle>
    <vehicle id="88" depart="44.00" departLane="best" departPos="random" departSpeed="max">
        <route edges="5670354#1 68674959#1 5673236#3 5673236#4"/>
    </vehicle>
    <vehicle id="89" depart="44.50" departLane="best" departPos="random" departSpeed="max">
        <route edges="46240372 194933371#2 194933371#3 46240373#1 46240373#2 196117048#3 -5673236#1 -5673236#0"/>
    </vehicle>
    <vehicle id="90" depart="45.00" departLane="best" departPos="random" departSpeed="max">
        <route edges="5670354#0 5670354#1 68674959#1 68674959#2 68674959#3 5670811#3 5670811#4"/>
    </vehicle>
    <vehicle id="91" depart="45.50" departLane="best" departPos="random" departSpeed="max">
        <route edges="46240372 194933371#2 194933371#3 46240373#1 46240373#2 196117048#3 -5673236#1 -5673236#0"/>
    </vehicle>
    <vehicle id="92" depart="46.00" departLane="best" departPos="random" departSpeed="max">
        <route edges="195743181#0 195743181#1 195743181#2 195743181#3 5670811#1 196117048#2"/>
    </vehicle>
    <vehicle id="93" depart="46.50" departLane="best" departPos="random" departSpeed="max">
        <route edges="5670811#0 5670811#1 5670811#2 5670811#3 194933371#3"/>
    </vehicle>
    <vehicle id="94" depart="47.00" departLane="best" departPos="random" departSpeed="max">
        <route edges="68674959#0 68674959#1 68674959#2 68674959#3 68674959#4 68674959#5 68674959#6"/>
    </vehicle>
    <vehicle id="95" depart="47.50" departLane="best" departPos="random" departSpeed="max">
        <route edges="5670354#0 5670354#1 68674959#1 -5673236#2 -5673236#1 195743181#2 195743181#3 195743181#4 195743181#5 5671162#1"/>
    </vehicle>
    <vehicle id="96" depart="48.00" departLane="best" departPos="random" departSpeed="max">
        <route edges="46240372 194933371#2 194933371#3 46240373#1 46240373#2 196117048#3 -5673236#1 -5673236#0"/>
    </vehicle>
    <vehicle id="97" depart="48.50" departLane="best" departPos="random" departSpeed="max">
        <route edges="5671162#0 5671162#1 196117048#0 196117048#1 5670811#2 5670811#3 5670811#4"/>
    </vehicle>
    <vehicle id="98" depart="49.00" departLane="best" departPos="random" departSpeed="max">
        <route edges="5670354#0 5670354#1 68674959#1 -5673236#2 -5673236#1 195743181#2 195743181#3 195743181#4"/>
    </vehicle>
    <vehicle id="99" depart="49.50" departLane="best" departPos="random" departSpeed="max">
        <route edges="5670811#0 5670811#1 5670811#2 5670811#3 5670811#4"/>
    </vehicle>
    <vehicle id="100" depart="50.00" departLane="best" departPos="random" departSpeed="max">
        <route edges="68674959#4 226015233#1 196117048#1 196117048#2 196117048#3 5673236#2 5673236#3 196117041#0 196117041#1"/>
    </vehicle>
    <vehicle id="101" depart="50.50" departLane="best" departPos="random" departSpeed="max">
        <route edges="68674959#0 68674959#1 68674959#2 68674959#3 68674959#4 68674959#5 68674959#6"/>
    </vehicle>
    <vehicle id="102" depart="51.00" departLane="best" departPos="random" departSpeed="max">
        <route edges="46240205 196116993#0 196116993#1"/>
    </vehicle>
    <vehicle id="103" depart="51.50" departLane="best" departPos="random" departSpeed="max">
        <route edges="5670811#0 5670811#1 5670811#2 68674959#4 68674959#5 68674959#6"/>
    </vehicle>
    <vehicle id="104" depart="52.00" departLane="best" departPos="random" departSpeed="max">
        <route edges="46240373#0 46240373#1 68674959#3 68674959#4 226015233#1 196117048#1"/>
    </vehicle>
    <vehicle id="105" depart="52.50" departLane="best" departPos="random" departSpeed="max">
        <route edges="194933371#0 194933371#1 194933371#2 5670811#4"/>
    </vehicle>
    <vehicle id="106" depart="53.00" departLane="best" departPos="random" departSpeed="max">
        <route edges="-5673236#4 -5673236#3 68674959#2 68674959#3 68674959#4 68674959#5 196116993#1 196116994"/>
    </vehicle>
    <vehicle id="107" depart="53.50" departLane="best" departPos="random" departSpeed="max">
        <route edges="5670354#0 5670354#1 68674959#1 68674959#2 68674959#3 68674959#4 68674959#5 68674959#6"/>
    </vehicle>
    <vehicle id="108" depart="54.00" departLane="best" departPos="random" departSpeed="max">
        <route edges="46240373#3 195743181#3 5670811#1 196117048#2 196117048#3 196117048#4 196117048#5"/>
    </vehicle>
    <vehicle id="109" depart="54.50" departLane="best" departPos="random" departSpeed="max">
        <route edges="196117048#4 5670354#3 195743181#1 195743181#2 195743181#3 5670811#1 5670811#2 68674959#4 68674959#5 196116993#1 196116994"/>
    </vehicle>
    <vehicle id="110" depart="55.00" departLane="best" departPos="random" departSpeed="max">
        <route edges="194933371#1 194933371#2 194933371#3 194933371#4 196117041#0 5670354#1 5670354#2 5670354#3 5670354#4"/>
    </vehicle>
    <vehicle id="111" depart="55.50" departLane="best" departPos="random" departSpeed="max">
        <route edges="226015234#0 226015234#1"/>
    </vehicle>
    <vehicle id="112" depart="56.00" departLane="best" departPos="random" departSpeed="max">
        <route edges="5670811#0 195743181#4 195743181#5 195743181#6"/>
    </vehicle>
    <vehicle id="113" depart="56.50" departLane="best" departPos="random" departSpeed="max">
        <route edges="5673236#0 195743181#2 195743181#3 5670811#1 5670811#2 68674959#4 68674959#5 196116993#1 196116994"/>
    </vehicle>
    <vehicle id="114" depart="57.00" departLane="best" departPos="random" departSpeed="max">
        <route edges="46240372 194933371#2 194933371#3 194933371#4 196117041#0 5670354#1 5670354#2 5670354#3 5670354#4"/>
    </vehicle>
    <vehicle id="115" depart="57.50" departLane="best" departPos="random" departSpeed="max">
        <route edges="5670811#0 5670811#1 196117048#2 46240373#3 195743181#3"/>
    </vehicle>
    <vehicle id="116" depart="58.00" departLane="best" departPos="random" departSpeed="max">
        <route edges="195743181#0 195743181#1 195743181#2 195743181#3 195743181#4 195743181#5 195743181#6"/>
    </vehicle>
    <vehicle id="117" depart="58.50" departLane="best" departPos="random" departSpeed="max">
        <route edges="46240205 196117048#0 196117048#1 196117048#2 46240373#3 46240373#4"/>
    </vehicle>
    <vehicle id="118" depart="59.00" departLane="best" departPos="random" departSpeed="max">
        <route edges="195743181#0 195743181#1 195743181#2 195743181#3 195743181#4 195743181#5 5671162#1"/>
    </vehicle>
    <vehicle id="119" depart="59.50" departLane="best" departPos="random" departSpeed="max">
        <route edges="194933371#0 194933371#1 194933371#2 194933371#3 194933371#4 5673236#4"/>
    </vehicle>
    <vehicle id="120" depart="60.00" departLane="best" departPos="random" departSpeed="max">
        <route edges="194933371#0 194933371#1 194933371#2 194933371#3 194933371#4 -5673236#3 68674959#2"/>
    </vehicle>
    <vehicle id="121" depart="60.50" departLane="best" departPos="random" departSpeed="max">
        <route edges="196117048#1 5670811#2 5670811#3 5670811#4"/>
    </vehicle>
    <vehicle id="122" depart="61.00" departLane="best" departPos="random" departSpeed="max">
        <route edges="46240373#0 46240373#1 46240373#2 196117048#3 -5673236#1 -5673236#0"/>
    </vehicle>
    <vehicle id="123" depart="61.50" departLane="best" departPos="random" departSpeed="max">
        <route edges="46240373#0 194933371#4 196117041#0 196117041#1"/>
    </vehicle>
    <vehicle id="124" depart="62.00" departLane="best" departPos="random" departSpeed="max">
        <route edges="194933371#2 194933371#3 194933371#4 -5673236#3"/>
    </vehicle>
    <vehicle id="125" depart="62.50" departLane="best" departPos="random" departSpeed="max">
        <route edges="5673236#0 5673236#1 5673236#2 5673236#3 5673236#4"/>
    </vehicle>
    <vehicle id="126" depart="63.00" departLane="best" departPos="random" departSpeed="max">
        <route edges="194933371#0 194933371#1 194933371#2 194933371#3 194933371#4 196117041#0 5670354#1 5670354#2 196117048#5"/>
    </vehicle>
    <vehicle id="127" depart="63.50" departLane="best" departPos="random" departSpeed="max">
        <route edges="46240373#0 194933371#4 -5673236#3 68674959#2"/>
    </vehicle>
    <vehicle id="128" depart="64.00" departLane="best" departPos="random" departSpeed="max">
        <route edges="68674959#0 68674959#1 -5673236#2 -5673236#1 195743181#2 195743181#3 195743181#4 195743181#5 195743181#6"/>
    </vehicle>
    <vehicle id="129" depart="64.50" departLane="best" departPos="random" departSpeed="max">
        <route edges="195743181#4 195743181#5 5671162#1 196117048#0 196117048#1 196117048#2 196117048#3 196117048#4 5670354#3 5670354#4"/>
    </vehicle>
    <vehicle id="130" depart="65.00" departLane="best" departPos="random" departSpeed="max">
        <route edges="194933371#0 194933371#1 194933371#2 194933371#3 46240373#1 46240373#2 46240373#3 195743181#3"/>
    </vehicle>
    <vehicle id="131" depart="65.50" departLane="best" departPos="random" departSpeed="max">
        <route edges="5670811#0 5670811#1 5670811#2 5670811#3"/>
    </vehicle>
    <vehicle id="132" depart="66.00" departLane="best" departPos="random" departSpeed="max">
        <route edges="196116993#1 196116994"/>
    </vehicle>
    <vehicle id="133" depart="66.50" departLane="best" departPos="random" departSpeed="max">
        <route edges="5671162#0 195743181#6"/>
    </vehicle>
    <vehicle id="134" depart="67.00" departLane="best" departPos="random" departSpeed="max">
        <route edges="195743181#4 195743181#5 5671162#1 196117048#0 196117048#1 196117048#2 196117048#3 5673236#2 68674959#2"/>
    </vehicle>
    <vehicle id="135" depart="67.50" departLane="best" departPos="random" departSpeed="max">
        <route edges="68674959#0 68674959#1 -5673236#2 -5673236#1"/>
    </vehicle>
    <vehicle id="136" depart="68.00" departLane="best" departPos="random" departSpeed="max">
        <route edges="5670354#0 5670354#1 68674959#1 68674959#2 68674959#3 5670811#3 5670811#4"/>
    </vehicle>
    <vehicle id="137" depart="68.50" departLane="best" departPos="random" departSpeed="max">
        <route edges="46240373#0 194933371#4 -5673236#3 68674959#2"/>
    </vehicle>
    <vehicle id="138" depart="69.00" departLane="best" departPos="random" departSpeed="max">
        <route edges="194933371#0 194933371#1 194933371#2 194933371#3 46240373#1 46240373#2 46240373#3"/>
    </vehicle>
    <vehicle id="139" depart="69.50" departLane="best" departPos="random" departSpeed="max">
        <route edges="5670354#0 5670354#1 68674959#1 -5673236#2 -5673236#1 195743181#2 46240373#4"/>
    </vehicle>
    <vehicle id="140" depart="70.00" departLane="best" departPos="random" departSpeed="max">
        <route edges="5670354#0 5670354#1 5670354#2 5670354#3 5670354#4"/>
    </vehicle>
    <vehicle id="141" depart="70.50" departLane="best" departPos="random" departSpeed="max">
        <route edges="68674959#0 5670354#2 5670354#3 5670354#4"/>
    </vehicle>
    <vehicle id="142" depart="71.00" departLane="best" departPos="random" departSpeed="max">
        <route edges="194933371#4 -5673236#3 68674959#2 68674959#3 68674959#4 68674959#5 196116993#1 196116994"/>
    </vehicle>
    <vehicle id="143" depart="71.50" departLane="best" departPos="random" departSpeed="max">
        <route edges="5671162#0 5671162#1 196117048#0 196117048#1 5670811#2 5670811#3 5670811#4"/>
    </vehicle>
    <vehicle id="144" depart="72.00" departLane="best" departPos="random" departSpeed="max">
        <route edges="68674959#5 196116993#1 194933371#1 226015233#0 226015233#1 226015234#0 226015234#1"/>
    </vehicle>