<?xml version="1.0" encoding="UTF-8"?>

<!-- generated on 08/16/14 07:16:47 by SUMO netconvert Version 0.20.0
<?xml version="1.0" encoding="UTF-8"?>

<configuration xmlns:xsi="http://www.w3.org/2001/XMLSchema-instance" xsi:noNamespaceSchemaLocation="http://sumo-sim.org/xsd/netconvertConfiguration.xsd">

    <input>
        <osm-files value="output.osm"/>
    </input>

    <output>
        <output-file value="red.net.xml"/>
    </output>

    <projection>
        <proj.utm value="true"/>
    </projection>

</configuration>
-->

<net version="0.13" xmlns:xsi="http://www.w3.org/2001/XMLSchema-instance" xsi:noNamespaceSchemaLocation="http://sumo-sim.org/xsd/net_file.xsd">

    <location netOffset="-574283.01,3863997.50" convBoundary="0.00,0.00,730.23,551.00" origBoundary="-56.186833,-34.915701,-56.178814,-34.910699" projParameter="+proj=utm +zone=21 +ellps=WGS84 +datum=WGS84 +units=m +no_defs"/>

    <edge id=":1894922183_0" function="internal">
        <lane id=":1894922183_0_0" index="0" speed="12.50" length="4.82" shape="0.30,402.74 -1.06,402.15 -1.62,401.42 -1.37,400.53 -0.30,399.49"/>
    </edge>
    <edge id=":1894922217_0" function="internal">
        <lane id=":1894922217_0_0" index="0" speed="12.50" length="5.33" shape="301.72,337.33 301.50,338.83 301.85,339.92 302.77,340.60 304.26,340.88"/>
    </edge>
    <edge id=":1894922217_1" function="internal">
        <lane id=":1894922217_1_0" index="0" speed="12.50" length="6.31" shape="297.95,340.60 304.26,340.88"/>
    </edge>
    <edge id=":1894922239_0" function="internal">
        <lane id=":1894922239_0_0" index="0" speed="12.50" length="6.40" shape="387.30,253.75 387.55,255.82 388.26,256.95 389.42,257.13 391.05,256.37"/>
    </edge>
    <edge id=":1894922239_1" function="internal">
        <lane id=":1894922239_1_0" index="0" speed="12.50" length="2.59" shape="387.30,253.75 385.99,254.67 385.00,254.76"/>
    </edge>
    <edge id=":1894922239_4" function="internal">
        <lane id=":1894922239_4_0" index="0" speed="12.50" length="2.59" shape="385.00,254.76 384.33,254.03 383.99,252.47"/>
    </edge>
    <edge id=":1894922239_2" function="internal">
        <lane id=":1894922239_2_0" index="0" speed="12.50" length="8.51" shape="386.63,259.24 385.50,259.49 384.68,258.44 384.18,256.10 383.99,252.47"/>
    </edge>
    <edge id=":1894922239_3" function="internal">
        <lane id=":1894922239_3_0" index="0" speed="12.50" length="5.27" shape="386.63,259.24 391.05,256.37"/>
    </edge>
    <edge id=":1894922252_0" function="internal">
        <lane id=":1894922252_0_0" index="0" speed="12.50" length="1.76" shape="372.18,241.72 370.48,241.30"/>
    </edge>
    <edge id=":1894922252_1" function="internal">
        <lane id=":1894922252_1_0" index="0" speed="12.50" length="15.42" shape="372.18,241.72 366.78,239.76 365.03,238.50 366.92,237.95 372.46,238.12"/>
    </edge>
    <edge id=":1894922252_2" function="internal">
        <lane id=":1894922252_2_0" index="0" speed="12.50" length="4.96" shape="372.18,241.72 370.98,240.78 370.62,239.90 371.11,239.09 372.44,238.34"/>
    </edge>
    <edge id=":1894922252_3" function="internal">
        <lane id=":1894922252_3_0" index="0" speed="12.50" length="3.07" shape="372.21,241.41 372.44,238.34"/>
    </edge>
    <edge id=":1894922252_4" function="internal">
        <lane id=":1894922252_4_0" index="0" speed="12.50" length="1.73" shape="372.21,241.41 370.48,241.30"/>
    </edge>
    <edge id=":1894922252_5" function="internal">
        <lane id=":1894922252_5_0" index="0" speed="12.50" length="4.82" shape="372.21,241.41 371.04,240.49 370.69,239.64 371.16,238.84 372.46,238.12"/>
    </edge>
    <edge id=":1894922252_6" function="internal">
        <lane id=":1894922252_6_0" index="0" speed="12.50" length="1.81" shape="370.65,238.00 372.46,238.12"/>
    </edge>
    <edge id=":1894922252_7" function="internal">
        <lane id=":1894922252_7_0" index="0" speed="12.50" length="1.82" shape="370.65,238.00 372.44,238.34"/>
    </edge>
    <edge id=":1894922252_8" function="internal">
        <lane id=":1894922252_8_0" index="0" speed="12.50" length="4.82" shape="370.65,238.00 371.84,238.89 372.21,239.73 371.76,240.54 370.48,241.30"/>
    </edge>
    <edge id=":1894922341_0" function="internal">
        <lane id=":1894922341_0_0" index="0" speed="20.83" length="6.20" shape="217.92,20.48 211.75,19.85"/>
        <lane id=":1894922341_0_1" index="1" speed="20.83" length="6.20" shape="218.26,17.21 212.09,16.57"/>
    </edge>
    <edge id=":1894922341_2" function="internal">
        <lane id=":1894922341_2_0" index="0" speed="16.67" length="5.07" shape="214.59,23.33 214.48,21.93 213.97,20.88 213.06,20.19 211.75,19.85"/>
    </edge>
    <edge id=":2526008000_0" function="internal">
        <lane id=":2526008000_0_0" index="0" speed="12.50" length="9.26" shape="397.94,259.14 397.09,260.18 396.42,261.98 395.91,264.56 395.58,267.91"/>
    </edge>
    <edge id=":2526008000_1" function="internal">
        <lane id=":2526008000_1_0" index="0" speed="12.50" length="11.34" shape="397.94,259.14 395.33,260.96 393.29,262.39 391.25,263.82 388.64,265.64"/>
    </edge>
    <edge id=":2526008000_2" function="internal">
        <lane id=":2526008000_2_0" index="0" speed="12.50" length="6.24" shape="392.29,267.69 392.18,265.75 391.54,264.76 390.36,264.72 388.64,265.64"/>
    </edge>
    <edge id=":2526008000_3" function="internal">
        <lane id=":2526008000_3_0" index="0" speed="12.50" length="4.82" shape="392.29,267.69 393.19,266.51 394.04,266.16 394.84,266.62 395.58,267.91"/>
    </edge>
    <edge id=":2527402043_0" function="internal">
        <lane id=":2527402043_0_0" index="0" speed="12.50" length="1.66" shape="233.49,351.20 231.87,351.60"/>
    </edge>
    <edge id=":2527402043_1" function="internal">
        <lane id=":2527402043_1_0" index="0" speed="12.50" length="2.53" shape="233.49,351.20 231.99,350.76 231.31,350.06"/>
    </edge>
    <edge id=":2527402043_4" function="internal">
        <lane id=":2527402043_4_0" index="0" speed="12.50" length="2.53" shape="231.31,350.06 231.47,349.11 232.45,347.89"/>
    </edge>
    <edge id=":2527402043_2" function="internal">
        <lane id=":2527402043_2_0" index="0" speed="12.50" length="1.42" shape="231.12,348.39 232.45,347.89"/>
    </edge>
    <edge id=":2527402043_3" function="internal">
        <lane id=":2527402043_3_0" index="0" speed="12.50" length="2.41" shape="231.12,348.39 232.51,348.91 233.10,349.62"/>
    </edge>
    <edge id=":2527402043_5" function="internal">
        <lane id=":2527402043_5_0" index="0" speed="12.50" length="2.41" shape="233.10,349.62 232.89,350.52 231.87,351.60"/>
    </edge>
    <edge id=":2527402046_0" function="internal">
        <lane id=":2527402046_0_0" index="0" speed="12.50" length="0.10" shape="347.00,348.31 347.00,348.30"/>
    </edge>
    <edge id=":2527402046_1" function="internal">
        <lane id=":2527402046_1_0" index="0" speed="12.50" length="2.52" shape="347.00,348.31 348.10,346.04"/>
    </edge>
    <edge id=":2527402046_4" function="internal">
        <lane id=":2527402046_4_0" index="0" speed="12.50" length="19.55" shape="348.10,346.04 349.96,342.17 353.44,339.78 357.44,341.12 361.97,346.21"/>
    </edge>
    <edge id=":2527402046_2" function="internal">
        <lane id=":2527402046_2_0" index="0" speed="12.50" length="14.79" shape="347.19,345.98 350.89,346.23 354.57,346.18 358.26,346.09 361.97,346.21"/>
    </edge>
    <edge id=":2527402046_3" function="internal">
        <lane id=":2527402046_3_0" index="0" speed="12.50" length="1.70" shape="347.19,345.98 348.01,346.63 348.26,347.24"/>
    </edge>
    <edge id=":2527402046_5" function="internal">
        <lane id=":2527402046_5_0" index="0" speed="12.50" length="1.70" shape="348.26,347.24 347.92,347.79 347.00,348.30"/>
    </edge>
    <edge id=":2527402047_0" function="internal">
        <lane id=":2527402047_0_0" index="0" speed="12.50" length="5.22" shape="274.53,348.07 273.24,348.33 272.28,349.00 271.64,350.06 271.32,351.52"/>
    </edge>
    <edge id=":2527402047_1" function="internal">
        <lane id=":2527402047_1_0" index="0" speed="12.50" length="6.23" shape="274.53,348.07 268.30,348.34"/>
    </edge>
    <edge id=":917321716_0" function="internal">
        <lane id=":917321716_0_0" index="0" speed="12.50" length="14.67" shape="427.24,246.45 423.50,246.16 419.81,246.25 416.29,246.98 413.04,248.59"/>
    </edge>
    <edge id=":917321716_1" function="internal">
        <lane id=":917321716_1_0" index="0" speed="12.50" length="8.48" shape="427.24,246.45 418.80,245.56"/>
    </edge>
    <edge id=":917321716_2" function="internal">
        <lane id=":917321716_2_0" index="0" speed="12.50" length="4.82" shape="427.24,246.45 426.09,245.50 425.77,244.64 426.26,243.86 427.58,243.16"/>
    </edge>
    <edge id=":917321716_3" function="internal">
        <lane id=":917321716_3_0" index="0" speed="12.50" length="7.06" shape="426.59,239.25 424.83,240.74 424.41,241.88 425.32,242.69 427.58,243.16"/>
    </edge>
    <edge id=":917321716_4" function="internal">
        <lane id=":917321716_4_0" index="0" speed="12.50" length="16.46" shape="426.59,239.25 423.31,241.49 419.80,243.90 416.30,246.32 413.04,248.59"/>
    </edge>
    <edge id=":917321716_5" function="internal">
        <lane id=":917321716_5_0" index="0" speed="12.50" length="10.64" shape="426.59,239.25 424.33,241.52 423.00,243.71 421.53,245.25 418.80,245.56"/>
    </edge>
    <edge id=":917321716_6" function="internal">
        <lane id=":917321716_6_0" index="0" speed="12.50" length="14.95" shape="412.73,241.39 416.44,241.88 420.15,242.34 423.86,242.77 427.58,243.16"/>
    </edge>
    <edge id=":917321716_7" function="internal">
        <lane id=":917321716_7_0" index="0" speed="12.50" length="11.87" shape="412.73,241.39 416.08,242.30 417.24,243.80 416.23,245.90 413.04,248.59"/>
    </edge>
    <edge id=":917321716_8" function="internal">
        <lane id=":917321716_8_0" index="0" speed="12.50" length="5.38" shape="412.73,241.39 415.81,240.15 417.85,240.44"/>
    </edge>
    <edge id=":917321716_9" function="internal">
        <lane id=":917321716_9_0" index="0" speed="12.50" length="5.38" shape="417.85,240.44 418.85,242.24 418.80,245.56"/>
    </edge>
    <edge id=":917340683_0" function="internal">
        <lane id=":917340683_0_0" index="0" speed="16.67" length="7.87" shape="621.18,117.09 613.64,119.38"/>
    </edge>
    <edge id=":917340683_1" function="internal">
        <lane id=":917340683_1_0" index="0" speed="20.83" length="8.12" shape="621.18,117.09 613.13,115.56"/>
        <lane id=":917340683_1_1" index="1" speed="20.83" length="8.12" shape="621.63,113.82 613.74,112.31"/>
    </edge>
    <edge id=":917355269_0" function="internal">
        <lane id=":917355269_0_0" index="0" speed="12.50" length="4.82" shape="3.24,117.11 2.06,116.21 1.69,115.37 2.15,114.57 3.44,113.81"/>
    </edge>
    <edge id=":917363703_0" function="internal">
        <lane id=":917363703_0_0" index="0" speed="12.50" length="4.82" shape="129.77,296.36 130.92,297.30 131.26,298.16 130.77,298.94 129.46,299.65"/>
    </edge>
    <edge id=":917366630_0" function="internal">
        <lane id=":917366630_0_0" index="0" speed="12.50" length="6.50" shape="535.34,158.08 530.74,153.49"/>
    </edge>
    <edge id=":917366630_1" function="internal">
        <lane id=":917366630_1_0" index="0" speed="12.50" length="5.13" shape="535.34,158.08 534.37,157.03 534.02,155.95 534.27,154.84 535.14,153.70"/>
    </edge>
    <edge id=":917366630_2" function="internal">
        <lane id=":917366630_2_0" index="0" speed="12.50" length="5.23" shape="530.76,158.20 531.52,157.08 531.77,155.93 531.51,154.73 530.74,153.49"/>
    </edge>
    <edge id=":917366630_3" function="internal">
        <lane id=":917366630_3_0" index="0" speed="12.50" length="6.28" shape="530.76,158.20 535.14,153.70"/>
    </edge>
    <edge id=":917370794_0" function="internal">
        <lane id=":917370794_0_0" index="0" speed="12.50" length="7.55" shape="67.61,388.91 65.49,389.63 63.94,390.68 62.94,392.05 62.51,393.74"/>
    </edge>
    <edge id=":917370794_1" function="internal">
        <lane id=":917370794_1_0" index="0" speed="12.50" length="8.64" shape="67.61,388.91 59.21,390.91"/>
    </edge>
    <edge id=":917370794_2" function="internal">
        <lane id=":917370794_2_0" index="0" speed="12.50" length="2.41" shape="67.61,388.91 66.21,388.39 65.62,387.68"/>
    </edge>
    <edge id=":917370794_8" function="internal">
        <lane id=":917370794_8_0" index="0" speed="12.50" length="2.41" shape="65.62,387.68 65.84,386.78 66.85,385.69"/>
    </edge>
    <edge id=":917370794_3" function="internal">
        <lane id=":917370794_3_0" index="0" speed="12.50" length="5.48" shape="63.61,382.80 63.65,384.39 64.20,385.40 65.27,385.84 66.85,385.69"/>
    </edge>
    <edge id=":917370794_4" function="internal">
        <lane id=":917370794_4_0" index="0" speed="12.50" length="10.99" shape="63.61,382.80 63.25,385.91 63.00,388.27 62.78,390.63 62.51,393.74"/>
    </edge>
    <edge id=":917370794_5" function="internal">
        <lane id=":917370794_5_0" index="0" speed="12.50" length="3.96" shape="63.61,382.80 63.02,386.03 62.77,386.67"/>
    </edge>
    <edge id=":917370794_9" function="internal">
        <lane id=":917370794_9_0" index="0" speed="12.50" length="5.79" shape="62.77,386.67 62.09,388.45 60.82,390.08 59.21,390.91"/>
    </edge>
    <edge id=":917370794_6" function="internal">
        <lane id=":917370794_6_0" index="0" speed="12.50" length="8.66" shape="58.43,387.70 66.85,385.69"/>
    </edge>
    <edge id=":917370794_7" function="internal">
        <lane id=":917370794_7_0" index="0" speed="12.50" length="2.41" shape="58.43,387.70 59.83,388.21 60.42,388.92"/>
    </edge>
    <edge id=":917370794_10" function="internal">
        <lane id=":917370794_10_0" index="0" speed="12.50" length="2.41" shape="60.42,388.92 60.21,389.82 59.21,390.91"/>
    </edge>
    <edge id=":917381465_0" function="internal">
        <lane id=":917381465_0_0" index="0" speed="12.50" length="6.36" shape="131.89,373.86 125.69,375.27"/>
    </edge>
    <edge id=":917381465_1" function="internal">
        <lane id=":917381465_1_0" index="0" speed="12.50" length="2.41" shape="131.89,373.86 130.51,373.31 129.93,372.59"/>
    </edge>
    <edge id=":917381465_6" function="internal">
        <lane id=":917381465_6_0" index="0" speed="12.50" length="2.41" shape="129.93,372.59 130.16,371.70 131.20,370.63"/>
    </edge>
    <edge id=":917381465_2" function="internal">
        <lane id=":917381465_2_0" index="0" speed="12.50" length="6.42" shape="124.94,372.06 131.20,370.63"/>
    </edge>
    <edge id=":917381465_3" function="internal">
        <lane id=":917381465_3_0" index="0" speed="12.50" length="2.41" shape="124.94,372.06 126.33,372.58 126.92,373.29"/>
    </edge>
    <edge id=":917381465_7" function="internal">
        <lane id=":917381465_7_0" index="0" speed="12.50" length="2.41" shape="126.92,373.29 126.71,374.18 125.69,375.27"/>
    </edge>
    <edge id=":917381465_4" function="internal">
        <lane id=":917381465_4_0" index="0" speed="12.50" length="5.38" shape="129.03,378.07 128.90,376.53 128.30,375.55 127.23,375.13 125.69,375.27"/>
    </edge>
    <edge id=":917381465_5" function="internal">
        <lane id=":917381465_5_0" index="0" speed="12.50" length="8.03" shape="129.03,378.07 129.31,374.96 129.77,372.68 130.40,371.24 131.20,370.63"/>
    </edge>
    <edge id=":917385899_0" function="internal">
        <lane id=":917385899_0_0" index="0" speed="10.42" length="5.05" shape="607.18,451.04 605.81,451.13 604.80,451.64 604.13,452.57 603.81,453.93"/>
    </edge>
    <edge id=":917385899_1" function="internal">
        <lane id=":917385899_1_0" index="0" speed="8.33" length="9.51" shape="607.18,451.04 597.70,450.27"/>
    </edge>
    <edge id=":917385899_2" function="internal">
        <lane id=":917385899_2_0" index="0" speed="10.42" length="10.34" shape="607.18,451.04 604.44,450.41 602.54,449.04 601.49,446.94 601.27,444.11"/>
    </edge>
    <edge id=":917385899_3" function="internal">
        <lane id=":917385899_3_0" index="0" speed="8.33" length="4.82" shape="607.18,451.04 606.01,450.12 605.67,449.26 606.15,448.47 607.46,447.76"/>
    </edge>
    <edge id=":917385899_4" function="internal">
        <lane id=":917385899_4_0" index="0" speed="10.42" length="5.09" shape="604.57,444.32 604.67,445.73 605.19,446.77 606.11,447.44 607.46,447.76"/>
    </edge>
    <edge id=":917385899_5" function="internal">
        <lane id=":917385899_5_0" index="0" speed="12.50" length="9.64" shape="604.57,444.32 603.81,453.93"/>
    </edge>
    <edge id=":917385899_6" function="internal">
        <lane id=":917385899_6_0" index="0" speed="10.42" length="7.24" shape="604.57,444.32 603.98,447.11 602.64,449.04 600.81,449.96"/>
    </edge>
    <edge id=":917385899_7" function="internal">
        <lane id=":917385899_7_0" index="0" speed="12.50" length="2.41" shape="604.57,444.32 603.66,445.51 602.81,445.86"/>
    </edge>
    <edge id=":917385899_16" function="internal">
        <lane id=":917385899_16_0" index="0" speed="10.42" length="3.15" shape="600.81,449.96 600.55,450.09 597.70,450.27"/>
    </edge>
    <edge id=":917385899_17" function="internal">
        <lane id=":917385899_17_0" index="0" speed="12.50" length="2.41" shape="602.81,445.86 602.02,445.40 601.27,444.11"/>
    </edge>
    <edge id=":917385899_8" function="internal">
        <lane id=":917385899_8_0" index="0" speed="10.42" length="5.02" shape="597.95,446.98 599.33,446.89 600.34,446.39 600.99,445.46 601.27,444.11"/>
    </edge>
    <edge id=":917385899_9" function="internal">
        <lane id=":917385899_9_0" index="0" speed="8.33" length="9.54" shape="597.95,446.98 607.46,447.76"/>
    </edge>
    <edge id=":917385899_10" function="internal">
        <lane id=":917385899_10_0" index="0" speed="10.42" length="10.40" shape="597.95,446.98 600.74,447.61 602.64,448.97 603.67,451.08 603.81,453.93"/>
    </edge>
    <edge id=":917385899_11" function="internal">
        <lane id=":917385899_11_0" index="0" speed="8.33" length="4.82" shape="597.95,446.98 599.12,447.90 599.47,448.76 598.99,449.55 597.70,450.27"/>
    </edge>
    <edge id=":917385899_12" function="internal">
        <lane id=":917385899_12_0" index="0" speed="10.42" length="5.02" shape="600.52,453.63 600.45,452.25 599.96,451.23 599.04,450.57 597.70,450.27"/>
    </edge>
    <edge id=":917385899_13" function="internal">
        <lane id=":917385899_13_0" index="0" speed="12.50" length="9.55" shape="600.52,453.63 601.27,444.11"/>
    </edge>
    <edge id=":917385899_14" function="internal">
        <lane id=":917385899_14_0" index="0" speed="10.42" length="7.10" shape="600.52,453.63 601.18,450.86 602.55,448.95 604.27,448.11"/>
    </edge>
    <edge id=":917385899_15" function="internal">
        <lane id=":917385899_15_0" index="0" speed="12.50" length="2.41" shape="600.52,453.63 601.46,452.47 602.32,452.14"/>
    </edge>
    <edge id=":917385899_18" function="internal">
        <lane id=":917385899_18_0" index="0" speed="10.42" length="3.24" shape="604.27,448.11 604.65,447.92 607.46,447.76"/>
    </edge>
    <edge id=":917385899_19" function="internal">
        <lane id=":917385899_19_0" index="0" speed="12.50" length="2.41" shape="602.32,452.14 603.10,452.62 603.81,453.93"/>
    </edge>
    <edge id=":917392311_0" function="internal">
        <lane id=":917392311_0_0" index="0" speed="8.33" length="4.82" shape="466.75,543.14 465.83,544.31 464.97,544.65 464.19,544.18 463.46,542.88"/>
    </edge>
    <edge id=":917395511_0" function="internal">
        <lane id=":917395511_0_0" index="0" speed="12.50" length="5.06" shape="267.55,424.40 266.16,424.49 265.14,424.99 264.47,425.92 264.16,427.27"/>
    </edge>
    <edge id=":917395511_1" function="internal">
        <lane id=":917395511_1_0" index="0" speed="12.50" length="6.28" shape="267.55,424.40 261.29,423.95"/>
    </edge>
    <edge id=":917395511_2" function="internal">
        <lane id=":917395511_2_0" index="0" speed="12.50" length="4.82" shape="267.55,424.40 266.39,423.48 266.04,422.63 266.52,421.84 267.82,421.11"/>
    </edge>
    <edge id=":917395511_3" function="internal">
        <lane id=":917395511_3_0" index="0" speed="12.50" length="5.02" shape="265.00,417.75 265.07,419.13 265.56,420.15 266.48,420.81 267.82,421.11"/>
    </edge>
    <edge id=":917395511_4" function="internal">
        <lane id=":917395511_4_0" index="0" speed="12.50" length="9.55" shape="265.00,417.75 264.16,427.27"/>
    </edge>
    <edge id=":917395511_5" function="internal">
        <lane id=":917395511_5_0" index="0" speed="12.50" length="7.93" shape="265.00,417.75 264.54,420.54 263.77,422.50 262.69,423.64 261.29,423.95"/>
    </edge>
    <edge id=":917395511_6" function="internal">
        <lane id=":917395511_6_0" index="0" speed="12.50" length="6.33" shape="261.50,420.66 267.82,421.11"/>
    </edge>
    <edge id=":917395511_7" function="internal">
        <lane id=":917395511_7_0" index="0" speed="12.50" length="7.90" shape="261.50,420.66 262.86,421.15 263.76,422.41 264.19,424.45 264.16,427.27"/>
    </edge>
    <edge id=":917395511_8" function="internal">
        <lane id=":917395511_8_0" index="0" speed="12.50" length="4.82" shape="261.50,420.66 262.69,421.56 263.05,422.41 262.58,423.21 261.29,423.95"/>
    </edge>
    <edge id=":917420089_0" function="internal">
        <lane id=":917420089_0_0" index="0" speed="12.50" length="8.14" shape="407.48,244.06 399.37,243.32"/>
    </edge>
    <edge id=":917420089_1" function="internal">
        <lane id=":917420089_1_0" index="0" allow="delivery" speed="9.03" length="6.16" shape="407.48,244.06 405.31,243.40 403.83,242.03 403.16,240.28"/>
    </edge>
    <edge id=":917420089_2" function="internal">
        <lane id=":917420089_2_0" index="0" speed="12.50" length="3.50" shape="407.48,244.06 405.33,244.28 404.10,243.74"/>
    </edge>
    <edge id=":917420089_9" function="internal">
        <lane id=":917420089_9_0" index="0" speed="9.03" length="3.15" shape="403.16,240.28 403.03,239.95 402.91,237.15"/>
    </edge>
    <edge id=":917420089_10" function="internal">
        <lane id=":917420089_10_0" index="0" speed="12.50" length="3.50" shape="404.10,243.74 403.80,242.44 404.42,240.37"/>
    </edge>
    <edge id=":917420089_3" function="internal">
        <lane id=":917420089_3_0" index="0" speed="9.03" length="3.48" shape="406.20,237.38 404.42,240.37"/>
    </edge>
    <edge id=":917420089_4" function="internal">
        <lane id=":917420089_4_0" index="0" speed="9.03" length="10.33" shape="406.20,237.38 405.61,240.15 404.27,242.06 402.19,243.12 399.37,243.32"/>
    </edge>
    <edge id=":917420089_5" function="internal">
        <lane id=":917420089_5_0" index="0" allow="delivery" speed="5.56" length="4.82" shape="406.20,237.38 405.29,238.56 404.44,238.91 403.65,238.44 402.91,237.15"/>
    </edge>
    <edge id=":917420089_6" function="internal">
        <lane id=":917420089_6_0" index="0" allow="delivery" speed="9.03" length="5.00" shape="399.60,240.03 400.97,239.93 401.97,239.42 402.62,238.49 402.91,237.15"/>
    </edge>
    <edge id=":917420089_7" function="internal">
        <lane id=":917420089_7_0" index="0" speed="12.50" length="4.83" shape="399.60,240.03 404.42,240.37"/>
    </edge>
    <edge id=":917420089_8" function="internal">
        <lane id=":917420089_8_0" index="0" speed="12.50" length="2.41" shape="399.60,240.03 400.78,240.94 401.13,241.79"/>
    </edge>
    <edge id=":917420089_11" function="internal">
        <lane id=":917420089_11_0" index="0" speed="12.50" length="2.41" shape="401.13,241.79 400.66,242.58 399.37,243.32"/>
    </edge>
    <edge id=":917422451_0" function="internal">
        <lane id=":917422451_0_0" index="0" speed="12.50" length="5.97" shape="560.29,150.79 558.99,152.19 558.60,153.39 559.12,154.41 560.55,155.25"/>
    </edge>
    <edge id=":917422451_1" function="internal">
        <lane id=":917422451_1_0" index="0" speed="12.50" length="8.63" shape="560.29,150.79 553.04,155.48"/>
    </edge>
    <edge id=":917422451_2" function="internal">
        <lane id=":917422451_2_0" index="0" speed="12.50" length="8.30" shape="553.34,151.13 560.55,155.25"/>
    </edge>
    <edge id=":917422451_3" function="internal">
        <lane id=":917422451_3_0" index="0" speed="12.50" length="5.39" shape="553.34,151.13 554.36,152.30 554.65,153.41 554.21,154.47 553.04,155.48"/>
    </edge>
    <edge id=":917425590_0" function="internal">
        <lane id=":917425590_0_0" index="0" speed="12.50" length="4.82" shape="724.07,158.36 725.23,159.29 725.57,160.15 725.08,160.94 723.78,161.65"/>
    </edge>
    <edge id=":917433842_0" function="internal">
        <lane id=":917433842_0_0" index="0" speed="12.50" length="5.01" shape="619.62,266.04 618.25,266.12 617.24,266.63 616.59,267.55 616.30,268.90"/>
    </edge>
    <edge id=":917433842_1" function="internal">
        <lane id=":917433842_1_0" index="0" speed="12.50" length="9.66" shape="619.62,266.04 610.00,265.15"/>
    </edge>
    <edge id=":917433842_2" function="internal">
        <lane id=":917433842_2_0" index="0" speed="12.50" length="3.19" shape="619.62,266.04 616.85,265.41 616.57,265.21"/>
    </edge>
    <edge id=":917433842_3" function="internal">
        <lane id=":917433842_3_0" index="0" speed="12.50" length="2.41" shape="619.62,266.04 618.46,265.12 618.11,264.26"/>
    </edge>
    <edge id=":917433842_16" function="internal">
        <lane id=":917433842_16_0" index="0" speed="12.50" length="7.23" shape="616.57,265.21 614.94,264.03 613.89,261.92 613.70,259.06"/>
    </edge>
    <edge id=":917433842_17" function="internal">
        <lane id=":917433842_17_0" index="0" speed="12.50" length="2.41" shape="618.11,264.26 618.59,263.47 619.89,262.75"/>
    </edge>
    <edge id=":917433842_4" function="internal">
        <lane id=":917433842_4_0" index="0" speed="12.50" length="5.13" shape="616.99,259.31 617.08,260.72 617.60,261.76 618.53,262.44 619.89,262.75"/>
    </edge>
    <edge id=":917433842_5" function="internal">
        <lane id=":917433842_5_0" index="0" speed="12.50" length="9.62" shape="616.99,259.31 616.30,268.90"/>
    </edge>
    <edge id=":917433842_6" function="internal">
        <lane id=":917433842_6_0" index="0" speed="12.50" length="3.24" shape="616.99,259.31 616.37,262.12 616.16,262.41"/>
    </edge>
    <edge id=":917433842_7" function="internal">
        <lane id=":917433842_7_0" index="0" speed="12.50" length="2.41" shape="616.99,259.31 616.08,260.48 615.22,260.83"/>
    </edge>
    <edge id=":917433842_18" function="internal">
        <lane id=":917433842_18_0" index="0" speed="12.50" length="7.22" shape="616.16,262.41 615.00,264.03 612.87,265.04 610.00,265.15"/>
    </edge>
    <edge id=":917433842_19" function="internal">
        <lane id=":917433842_19_0" index="0" speed="12.50" length="2.41" shape="615.22,260.83 614.43,260.36 613.70,259.06"/>
    </edge>
    <edge id=":917433842_8" function="internal">
        <lane id=":917433842_8_0" index="0" speed="12.50" length="5.03" shape="610.34,261.87 611.72,261.82 612.74,261.33 613.40,260.41 613.70,259.06"/>
    </edge>
    <edge id=":917433842_9" function="internal">
        <lane id=":917433842_9_0" index="0" speed="12.50" length="9.59" shape="610.34,261.87 619.89,262.75"/>
    </edge>
    <edge id=":917433842_10" function="internal">
        <lane id=":917433842_10_0" index="0" speed="12.50" length="3.25" shape="610.34,261.87 613.11,262.56 613.43,262.79"/>
    </edge>
    <edge id=":917433842_11" function="internal">
        <lane id=":917433842_11_0" index="0" speed="12.50" length="2.41" shape="610.34,261.87 611.49,262.82 611.81,263.68"/>
    </edge>
    <edge id=":917433842_20" function="internal">
        <lane id=":917433842_20_0" index="0" speed="12.50" length="7.18" shape="613.43,262.79 615.03,263.96 616.09,266.07 616.30,268.90"/>
    </edge>
    <edge id=":917433842_21" function="internal">
        <lane id=":917433842_21_0" index="0" speed="12.50" length="2.41" shape="611.81,263.68 611.32,264.46 610.00,265.15"/>
    </edge>
    <edge id=":917433842_12" function="internal">
        <lane id=":917433842_12_0" index="0" speed="12.50" length="5.24" shape="613.01,268.67 612.90,267.26 612.36,266.20 611.40,265.50 610.00,265.15"/>
    </edge>
    <edge id=":917433842_13" function="internal">
        <lane id=":917433842_13_0" index="0" speed="12.50" length="9.64" shape="613.01,268.67 613.70,259.06"/>
    </edge>
    <edge id=":917433842_14" function="internal">
        <lane id=":917433842_14_0" index="0" speed="12.50" length="3.31" shape="613.01,268.67 613.60,265.89 613.87,265.51"/>
    </edge>
    <edge id=":917433842_15" function="internal">
        <lane id=":917433842_15_0" index="0" speed="12.50" length="2.41" shape="613.01,268.67 613.91,267.50 614.77,267.14"/>
    </edge>
    <edge id=":917433842_22" function="internal">
        <lane id=":917433842_22_0" index="0" speed="12.50" length="7.08" shape="613.87,265.51 614.95,263.97 617.05,262.93 619.89,262.75"/>
    </edge>
    <edge id=":917433842_23" function="internal">
        <lane id=":917433842_23_0" index="0" speed="12.50" length="2.41" shape="614.77,267.14 615.56,267.61 616.30,268.90"/>
    </edge>
    <edge id=":917460378_0" function="internal">
        <lane id=":917460378_0_0" index="0" speed="12.50" length="5.01" shape="89.72,122.17 88.35,122.27 87.35,122.78 86.70,123.71 86.42,125.06"/>
    </edge>
    <edge id=":917460378_1" function="internal">
        <lane id=":917460378_1_0" index="0" speed="12.50" length="6.22" shape="89.72,122.17 83.52,121.77"/>
    </edge>
    <edge id=":917460378_2" function="internal">
        <lane id=":917460378_2_0" index="0" speed="12.50" length="4.82" shape="89.72,122.17 88.55,121.26 88.19,120.41 88.67,119.62 89.96,118.88"/>
    </edge>
    <edge id=":917460378_3" function="internal">