<!-- generated on 06/22/14 19:45:05 by SUMO netconvert Version 0.20.0
<?xml version="1.0" encoding="UTF-8"?>

<configuration xmlns:xsi="http://www.w3.org/2001/XMLSchema-instance" xsi:noNamespaceSchemaLocation="http://sumo-sim.org/xsd/netconvertConfiguration.xsd">

    <input>
        <node-files value="red.nod.xml"/>
        <edge-files value="red.edg.xml"/>
        <connection-files value="red.con.xml"/>
        <tllogic-files value="red.tll.xml"/>
    </input>

    <output>
        <output-file value="red1.net.xml"/>
    </output>

    <processing>
        <ignore-errors.edge-type value="true"/>
    </processing>

</configuration>
-->

<net version="0.13" xmlns:xsi="http://www.w3.org/2001/XMLSchema-instance" xsi:noNamespaceSchemaLocation="http://sumo-sim.org/xsd/net_file.xsd">

    <location netOffset="-573003.07,3863257.36" convBoundary="0.00,0.00,891.18,635.32" origBoundary="-56.200902,-34.909118,-56.191130,-34.903351" projParameter="+proj=utm +zone=21 +ellps=WGS84 +datum=WGS84 +units=m +no_defs"/>

    <edge id=":-6_0" function="internal">
        <lane id=":-6_0_0" index="0" speed="12.50" length="4.82" shape="868.82,346.39 869.99,347.31 870.35,348.16 869.88,348.95 868.58,349.69"/>
    </edge>
    <edge id=":1893973257_0" function="internal">
        <lane id=":1893973257_0_0" index="0" speed="12.50" length="6.29" shape="661.04,446.58 654.77,446.10"/>
        <lane id=":1893973257_0_1" index="1" speed="12.50" length="6.29" shape="661.30,443.29 655.02,442.81"/>
        <lane id=":1893973257_0_2" index="2" speed="12.50" length="6.29" shape="661.55,440.00 655.28,439.52"/>
    </edge>
    <edge id=":1893973257_3" function="internal">
        <lane id=":1893973257_3_0" index="0" speed="12.50" length="5.09" shape="661.55,440.00 660.18,439.70 659.23,439.04 658.70,438.02 658.59,436.65"/>
    </edge>
    <edge id=":1893973257_4" function="internal">
        <lane id=":1893973257_4_0" index="0" speed="12.50" length="5.09" shape="657.73,449.45 657.62,448.08 657.09,447.06 656.14,446.40 654.77,446.10"/>
    </edge>
    <edge id=":1893973257_5" function="internal">
        <lane id=":1893973257_5_0" index="0" speed="12.50" length="12.83" shape="657.73,449.45 657.96,446.05 658.16,443.05 658.36,440.05 658.59,436.65"/>
    </edge>
    <edge id=":1893973276_0" function="internal">
        <lane id=":1893973276_0_0" index="0" speed="12.50" length="6.44" shape="202.56,302.35 201.19,302.47 200.19,303.01 199.56,303.95 199.31,305.30"/>
        <lane id=":1893973276_0_1" index="1" speed="12.50" length="6.44" shape="202.73,299.05 201.34,299.38 200.30,300.53 199.63,302.51 199.31,305.30"/>
    </edge>
    <edge id=":1893973276_2" function="internal">
        <lane id=":1893973276_2_0" index="0" speed="12.50" length="6.45" shape="200.16,289.19 200.27,290.56 200.79,291.56 201.73,292.20 203.08,292.46"/>
        <lane id=":1893973276_2_1" index="1" speed="12.50" length="6.45" shape="200.16,289.19 200.18,292.00 200.64,294.03 201.55,295.29 202.90,295.76"/>
    </edge>
    <edge id=":1893973276_4" function="internal">
        <lane id=":1893973276_4_0" index="0" speed="12.50" length="16.13" shape="200.16,289.19 199.92,293.11 199.70,297.24 199.49,301.38 199.31,305.30"/>
    </edge>
    <edge id=":917322276_0" function="internal">
        <lane id=":917322276_0_0" index="0" speed="12.50" length="6.23" shape="351.38,422.69 345.16,422.21"/>
        <lane id=":917322276_0_1" index="1" speed="12.50" length="6.23" shape="351.63,419.40 345.42,418.92"/>
        <lane id=":917322276_0_2" index="2" speed="12.50" length="6.23" shape="351.89,416.11 345.67,415.63"/>
    </edge>
    <edge id=":917322276_3" function="internal">
        <lane id=":917322276_3_0" index="0" speed="12.50" length="5.06" shape="351.89,416.11 350.54,415.81 349.61,415.15 349.09,414.13 348.97,412.75"/>
    </edge>
    <edge id=":917322276_4" function="internal">
        <lane id=":917322276_4_0" index="0" speed="12.50" length="5.04" shape="348.02,425.57 347.95,424.19 347.45,423.17 346.52,422.51 345.16,422.21"/>
    </edge>
    <edge id=":917322276_5" function="internal">
        <lane id=":917322276_5_0" index="0" speed="12.50" length="12.86" shape="348.02,425.57 348.33,422.16 348.56,419.16 348.77,416.16 348.97,412.75"/>
    </edge>
    <edge id=":917336870_0" function="internal">
        <lane id=":917336870_0_0" index="0" speed="12.50" length="5.00" shape="776.49,231.27 776.57,232.64 777.08,233.65 778.00,234.30 779.33,234.61"/>
    </edge>
    <edge id=":917336870_1" function="internal">
        <lane id=":917336870_1_0" index="0" speed="12.50" length="6.21" shape="776.49,231.27 775.97,237.46"/>
    </edge>
    <edge id=":917336870_2" function="internal">
        <lane id=":917336870_2_0" index="0" speed="12.50" length="6.21" shape="773.14,234.10 779.33,234.61"/>
    </edge>
    <edge id=":917336870_3" function="internal">
        <lane id=":917336870_3_0" index="0" speed="12.50" length="5.00" shape="773.14,234.10 774.48,234.41 775.40,235.07 775.89,236.09 775.97,237.46"/>
    </edge>
    <edge id=":917366828_0" function="internal">
        <lane id=":917366828_0_0" index="0" speed="12.50" length="5.08" shape="362.10,203.15 363.49,203.05 364.52,202.53 365.20,201.60 365.51,200.26"/>
    </edge>
    <edge id=":917366828_1" function="internal">
        <lane id=":917366828_1_0" index="0" speed="12.50" length="6.27" shape="362.10,203.15 368.34,203.60"/>
    </edge>
    <edge id=":917366828_2" function="internal">
        <lane id=":917366828_2_0" index="0" speed="12.50" length="6.27" shape="364.93,206.50 365.51,200.26"/>
    </edge>
    <edge id=":917366828_3" function="internal">
        <lane id=":917366828_3_0" index="0" speed="12.50" length="5.08" shape="364.93,206.50 365.26,205.14 365.94,204.21 366.97,203.69 368.34,203.60"/>
    </edge>
    <edge id=":917370760_0" function="internal">
        <lane id=":917370760_0_0" index="0" speed="12.50" length="5.11" shape="256.21,305.25 254.81,305.34 253.77,305.86 253.09,306.80 252.78,308.15"/>
    </edge>
    <edge id=":917370760_1" function="internal">
        <lane id=":917370760_1_0" index="0" speed="12.50" length="6.36" shape="256.21,305.25 249.90,304.85"/>
        <lane id=":917370760_1_1" index="1" speed="12.50" length="6.36" shape="256.46,301.96 250.07,301.55"/>
    </edge>
    <edge id=":917370760_3" function="internal">
        <lane id=":917370760_3_0" index="0" speed="12.50" length="5.01" shape="254.11,292.05 254.19,293.42 254.70,294.43 255.62,295.09 256.96,295.38"/>
    </edge>
    <edge id=":917370760_4" function="internal">
        <lane id=":917370760_4_0" index="0" speed="12.50" length="16.16" shape="254.11,292.05 253.79,295.97 253.45,300.10 253.11,304.24 252.78,308.15"/>
    </edge>
    <edge id=":917370760_5" function="internal">
        <lane id=":917370760_5_0" index="0" speed="12.50" length="3.15" shape="254.11,292.05 253.71,295.17"/>
    </edge>
    <edge id=":917370760_8" function="internal">
        <lane id=":917370760_8_0" index="0" speed="12.50" length="7.89" shape="253.71,295.17 253.56,296.27 252.71,299.26 251.54,301.02 250.07,301.55"/>
    </edge>
    <edge id=":917370760_6" function="internal">
        <lane id=":917370760_6_0" index="0" speed="12.50" length="6.51" shape="250.42,294.96 256.96,295.38"/>
        <lane id=":917370760_6_1" index="1" speed="12.50" length="6.51" shape="250.25,298.26 256.71,298.67"/>
    </edge>
    <edge id=":917374956_0" function="internal">
        <lane id=":917374956_0_0" index="0" speed="12.50" length="5.03" shape="478.76,107.60 477.39,107.69 476.38,108.20 475.72,109.13 475.41,110.48"/>
    </edge>
    <edge id=":917374956_1" function="internal">
        <lane id=":917374956_1_0" index="0" speed="12.50" length="6.22" shape="478.76,107.60 472.55,107.16"/>
    </edge>
    <edge id=":917374956_2" function="internal">
        <lane id=":917374956_2_0" index="0" speed="12.50" length="6.24" shape="475.88,104.26 475.41,110.48"/>
    </edge>
    <edge id=":917374956_3" function="internal">
        <lane id=":917374956_3_0" index="0" speed="12.50" length="5.03" shape="475.88,104.26 475.59,105.61 474.95,106.54 473.93,107.05 472.55,107.16"/>
    </edge>
    <edge id=":917376571_0" function="internal">
        <lane id=":917376571_0_0" index="0" speed="12.50" length="5.04" shape="150.45,240.10 151.82,240.02 152.84,239.51 153.49,238.58 153.79,237.22"/>
    </edge>
    <edge id=":917376571_1" function="internal">
        <lane id=":917376571_1_0" index="0" speed="12.50" length="6.25" shape="150.45,240.10 156.69,240.51"/>
    </edge>
    <edge id=":917388319_0" function="internal">
        <lane id=":917388319_0_0" index="0" speed="12.50" length="8.32" shape="651.91,505.37 647.89,498.25"/>
        <lane id=":917388319_0_1" index="1" speed="12.50" length="8.32" shape="654.93,504.05 650.79,496.67"/>
    </edge>
    <edge id=":917388319_2" function="internal">
        <lane id=":917388319_2_0" index="0" speed="12.50" length="8.22" shape="654.93,504.05 654.61,495.83"/>
    </edge>
    <edge id=":917389528_0" function="internal">
        <lane id=":917389528_0_0" index="0" speed="12.50" length="5.03" shape="467.01,208.24 467.09,209.62 467.59,210.64 468.52,211.28 469.87,211.56"/>
    </edge>
    <edge id=":917389528_1" function="internal">
        <lane id=":917389528_1_0" index="0" speed="12.50" length="6.23" shape="467.01,208.24 466.52,214.45"/>
    </edge>
    <edge id=":917389528_2" function="internal">
        <lane id=":917389528_2_0" index="0" speed="12.50" length="6.23" shape="463.66,211.13 469.87,211.56"/>
    </edge>
    <edge id=":917389528_3" function="internal">
        <lane id=":917389528_3_0" index="0" speed="12.50" length="4.99" shape="463.66,211.13 464.99,211.43 465.92,212.08 466.43,213.09 466.52,214.45"/>
    </edge>
    <edge id=":917414594_0" function="internal">
        <lane id=":917414594_0_0" index="0" speed="12.50" length="9.73" shape="670.96,549.54 667.39,540.62"/>
        <lane id=":917414594_0_1" index="1" speed="12.50" length="9.73" shape="674.06,548.43 670.41,539.29"/>
    </edge>
    <edge id=":917414594_2" function="internal">
        <lane id=":917414594_2_0" index="0" speed="12.50" length="5.65" shape="674.06,548.43 673.72,546.80 674.04,545.69 675.04,545.09 676.70,545.02"/>
    </edge>
    <edge id=":917414594_3" function="internal">
        <lane id=":917414594_3_0" index="0" speed="12.50" length="5.71" shape="664.94,544.15 666.63,544.01 667.60,543.38 667.86,542.25 667.39,540.62"/>
    </edge>
    <edge id=":917414594_4" function="internal">
        <lane id=":917414594_4_0" index="0" speed="12.50" length="11.79" shape="664.94,544.15 668.19,544.34 670.83,544.51 673.47,544.73 676.70,545.02"/>
    </edge>
    <edge id=":917440741_0" function="internal">
        <lane id=":917440741_0_0" index="0" speed="12.50" length="5.05" shape="568.89,217.67 570.29,217.56 571.31,217.04 571.95,216.10 572.23,214.76"/>
    </edge>
    <edge id=":917440741_1" function="internal">
        <lane id=":917440741_1_0" index="0" speed="12.50" length="6.23" shape="568.89,217.67 575.11,218.10"/>
    </edge>
    <edge id=":917440741_2" function="internal">
        <lane id=":917440741_2_0" index="0" speed="12.50" length="6.26" shape="571.74,221.01 572.23,214.76"/>
    </edge>
    <edge id=":917440741_3" function="internal">
        <lane id=":917440741_3_0" index="0" speed="12.50" length="5.05" shape="571.74,221.01 572.07,219.64 572.74,218.71 573.75,218.19 575.11,218.10"/>
    </edge>
    <edge id=":917473596_0" function="internal">
        <lane id=":917473596_0_0" index="0" speed="12.50" length="5.02" shape="336.40,518.61 337.77,518.52 338.79,518.02 339.46,517.10 339.77,515.77"/>
    </edge>
    <edge id=":917473596_1" function="internal">
        <lane id=":917473596_1_0" index="0" speed="12.50" length="6.21" shape="336.40,518.61 342.59,519.13"/>
    </edge>
    <edge id=":917473596_2" function="internal">
        <lane id=":917473596_2_0" index="0" speed="12.50" length="6.21" shape="339.23,521.96 339.77,515.77"/>
    </edge>
    <edge id=":917473596_3" function="internal">
        <lane id=":917473596_3_0" index="0" speed="12.50" length="5.01" shape="339.23,521.96 339.54,520.62 340.20,519.70 341.22,519.21 342.59,519.13"/>
    </edge>
    <edge id=":917482509_0" function="internal">
        <lane id=":917482509_0_0" index="0" speed="12.50" length="6.25" shape="685.84,122.15 679.61,121.67"/>
    </edge>
    <edge id=":917482509_1" function="internal">
        <lane id=":917482509_1_0" index="0" speed="12.50" length="5.07" shape="685.84,122.15 684.50,121.83 683.56,121.16 683.03,120.13 682.92,118.76"/>
    </edge>
    <edge id=":917482509_2" function="internal">
        <lane id=":917482509_2_0" index="0" speed="12.50" length="5.02" shape="682.48,124.98 682.40,123.60 681.89,122.59 680.96,121.95 679.61,121.67"/>
    </edge>
    <edge id=":917482509_3" function="internal">
        <lane id=":917482509_3_0" index="0" speed="12.50" length="6.24" shape="682.48,124.98 682.92,118.76"/>
    </edge>
    <edge id=":917490297_0" function="internal">
        <lane id=":917490297_0_0" index="0" speed="12.50" length="5.04" shape="453.38,430.57 451.99,430.66 450.97,431.16 450.30,432.09 450.00,433.43"/>
    </edge>
    <edge id=":917490297_1" function="internal">
        <lane id=":917490297_1_0" index="0" speed="12.50" length="6.25" shape="453.38,430.57 447.15,430.09"/>
        <lane id=":917490297_1_1" index="1" speed="12.50" length="6.25" shape="453.63,427.28 447.41,426.80"/>
        <lane id=":917490297_1_2" index="2" speed="12.50" length="6.25" shape="453.89,423.99 447.66,423.51"/>
    </edge>
    <edge id=":917490297_4" function="internal">
        <lane id=":917490297_4_0" index="0" speed="12.50" length="12.81" shape="451.04,420.65 450.76,424.05 450.52,427.04 450.27,430.03 450.00,433.43"/>
    </edge>
    <edge id=":917490297_5" function="internal">
        <lane id=":917490297_5_0" index="0" speed="12.50" length="4.08" shape="451.04,420.65 450.62,423.43 450.50,423.73"/>
        <lane id=":917490297_5_1" index="1" speed="12.50" length="4.08" shape="451.04,420.65 450.73,421.99 450.07,422.92 449.04,423.42 447.66,423.51"/>
    </edge>
    <edge id=":917490297_7" function="internal">
        <lane id=":917490297_7_0" index="0" speed="12.50" length="4.75" shape="450.50,423.73 449.87,425.38 448.80,426.51 447.41,426.80"/>
    </edge>
    <edge id=":917490607_0" function="internal">
        <lane id=":917490607_0_0" index="0" speed="12.50" length="5.05" shape="542.17,534.17 543.56,534.07 544.58,533.55 545.25,532.62 545.55,531.29"/>
    </edge>
    <edge id=":917490607_1" function="internal">
        <lane id=":917490607_1_0" index="0" speed="12.50" length="6.23" shape="542.17,534.17 548.39,534.63"/>
    </edge>
    <edge id=":917490607_2" function="internal">
        <lane id=":917490607_2_0" index="0" speed="12.50" length="6.23" shape="545.04,537.49 545.55,531.29"/>
    </edge>
    <edge id=":917490607_3" function="internal">
        <lane id=":917490607_3_0" index="0" speed="12.50" length="5.03" shape="545.04,537.49 545.34,536.14 546.01,535.22 547.02,534.71 548.39,534.63"/>
    </edge>
    <edge id=":917492921_0" function="internal">
        <lane id=":917492921_0_0" index="0" speed="12.50" length="6.12" shape="148.23,346.92 142.12,346.64"/>
    </edge>
    <edge id=":917492921_1" function="internal">
        <lane id=":917492921_1_0" index="0" speed="12.50" length="4.97" shape="145.03,349.92 144.90,348.57 144.38,347.57 143.45,346.93 142.12,346.64"/>
    </edge>
    <edge id=":917494347_0" function="internal">
        <lane id=":917494347_0_0" index="0" speed="12.50" length="5.00" shape="761.22,454.31 759.85,454.40 758.84,454.90 758.19,455.82 757.89,457.16"/>
    </edge>
    <edge id=":917494347_1" function="internal">
        <lane id=":917494347_1_0" index="0" speed="12.50" length="6.20" shape="761.22,454.31 755.04,453.83"/>
        <lane id=":917494347_1_1" index="1" speed="12.50" length="6.20" shape="761.47,451.02 755.29,450.54"/>
        <lane id=":917494347_1_2" index="2" speed="12.50" length="6.20" shape="761.73,447.73 755.54,447.25"/>
    </edge>
    <edge id=":917494347_4" function="internal">
        <lane id=":917494347_4_0" index="0" speed="12.50" length="12.80" shape="758.87,444.40 758.61,447.80 758.38,450.78 758.15,453.77 757.89,457.16"/>
    </edge>
    <edge id=":917494347_5" function="internal">
        <lane id=":917494347_5_0" index="0" speed="12.50" length="4.06" shape="758.87,444.40 758.47,447.18 758.36,447.47"/>
        <lane id=":917494347_5_1" index="1" speed="12.50" length="4.06" shape="758.87,444.40 758.58,445.74 757.92,446.66 756.91,447.16 755.54,447.25"/>
    </edge>
    <edge id=":917494347_7" function="internal">
        <lane id=":917494347_7_0" index="0" speed="12.50" length="4.73" shape="758.36,447.47 757.73,449.13 756.67,450.25 755.29,450.54"/>
    </edge>
    <edge id=":917494705_0" function="internal">
        <lane id=":917494705_0_0" index="0" speed="12.50" length="6.23" shape="581.15,115.55 574.94,115.12"/>
    </edge>
    <edge id=":917494705_1" function="internal">
        <lane id=":917494705_1_0" index="0" speed="12.50" length="5.02" shape="581.15,115.55 579.81,115.27 578.87,114.63 578.36,113.62 578.25,112.24"/>
    </edge>
    <edge id=":917494705_2" function="internal">
        <lane id=":917494705_2_0" index="0" speed="12.50" length="5.05" shape="577.87,118.46 577.75,117.09 577.23,116.07 576.29,115.42 574.94,115.12"/>
    </edge>
    <edge id=":917494705_3" function="internal">
        <lane id=":917494705_3_0" index="0" speed="12.50" length="6.23" shape="577.87,118.46 578.25,112.24"/>
    </edge>
    <edge id=":917500859_0" function="internal">
        <lane id=":917500859_0_0" index="0" speed="12.50" length="5.13" shape="769.76,345.95 768.33,346.04 767.27,346.55 766.59,347.48 766.29,348.82"/>
    </edge>
    <edge id=":917500859_1" function="internal">
        <lane id=":917500859_1_0" index="0" speed="12.50" length="6.36" shape="769.76,345.95 763.42,345.50"/>
        <lane id=":917500859_1_1" index="1" speed="12.50" length="6.36" shape="769.99,342.65 763.65,342.21"/>
    </edge>
    <edge id=":917500859_3" function="internal">
        <lane id=":917500859_3_0" index="0" speed="12.50" length="5.02" shape="767.62,332.73 767.69,334.11 768.19,335.13 769.11,335.78 770.46,336.07"/>
    </edge>
    <edge id=":917500859_4" function="internal">
        <lane id=":917500859_4_0" index="0" speed="12.50" length="16.14" shape="767.62,332.73 767.28,336.65 766.93,340.78 766.60,344.90 766.29,348.82"/>
    </edge>
    <edge id=":917500859_5" function="internal">
        <lane id=":917500859_5_0" index="0" speed="12.50" length="3.14" shape="767.62,332.73 767.20,335.84"/>
    </edge>
    <edge id=":917500859_8" function="internal">
        <lane id=":917500859_8_0" index="0" speed="12.50" length="7.83" shape="767.20,335.84 767.05,336.96 766.20,339.95 765.06,341.70 763.65,342.21"/>
    </edge>
    <edge id=":917500859_6" function="internal">
        <lane id=":917500859_6_0" index="0" speed="12.50" length="6.37" shape="764.10,335.63 770.46,336.07"/>
        <lane id=":917500859_6_1" index="1" speed="12.50" length="6.37" shape="763.87,338.92 770.23,339.36"/>
    </edge>
    <edge id=":917511160_0" function="internal">
        <lane id=":917511160_0_0" index="0" speed="12.50" length="5.01" shape="236.24,507.27 236.33,508.64 236.83,509.65 237.75,510.31 239.09,510.61"/>
    </edge>
    <edge id=":917511160_1" function="internal">
        <lane id=":917511160_1_0" index="0" speed="12.50" length="6.21" shape="236.24,507.27 235.76,513.46"/>
    </edge>
    <edge id=":917511160_2" function="internal">
        <lane id=":917511160_2_0" index="0" speed="12.50" length="6.21" shape="232.90,510.10 239.09,510.61"/>
    </edge>
    <edge id=":917511160_3" function="internal">
        <lane id=":917511160_3_0" index="0" speed="12.50" length="5.02" shape="232.90,510.10 234.24,510.41 235.16,511.07 235.67,512.09 235.76,513.46"/>
    </edge>
    <edge id=":917533316_0" function="internal">
        <lane id=":917533316_0_0" index="0" speed="12.50" length="5.06" shape="462.25,321.44 460.88,321.51 459.86,322.01 459.20,322.95 458.89,324.31"/>
    </edge>
    <edge id=":917533316_1" function="internal">
        <lane id=":917533316_1_0" index="0" speed="12.50" length="6.46" shape="462.25,321.44 455.84,320.88"/>
        <lane id=":917533316_1_1" index="1" speed="12.50" length="6.46" shape="462.56,318.15 456.10,317.59"/>
    </edge>
    <edge id=":917533316_3" function="internal">
        <lane id=":917533316_3_0" index="0" speed="12.50" length="5.33" shape="459.95,308.15 460.07,309.53 460.65,310.56 461.68,311.25 463.17,311.58"/>
    </edge>
    <edge id=":917533316_4" function="internal">
        <lane id=":917533316_4_0" index="0" speed="12.50" length="16.19" shape="459.95,308.15 459.70,312.08 459.44,316.23 459.18,320.39 458.89,324.31"/>
    </edge>
    <edge id=":917533316_5" function="internal">
        <lane id=":917533316_5_0" index="0" speed="12.50" length="3.14" shape="459.95,308.15 459.59,311.27"/>
    </edge>
    <edge id=":917533316_8" function="internal">
        <lane id=":917533316_8_0" index="0" speed="12.50" length="7.79" shape="459.59,311.27 459.46,312.38 458.65,315.36 457.53,317.10 456.10,317.59"/>
    </edge>
    <edge id=":917533316_6" function="internal">
        <lane id=":917533316_6_0" index="0" speed="12.50" length="6.55" shape="456.63,311.01 463.17,311.58"/>
        <lane id=":917533316_6_1" index="1" speed="12.50" length="6.55" shape="456.37,314.30 462.87,314.87"/>
    </edge>
    <edge id=":917534105_0" function="internal">
        <lane id=":917534105_0_0" index="0" speed="12.50" length="5.04" shape="154.44,188.16 155.81,188.05 156.83,187.54 157.49,186.61 157.79,185.27"/>
    </edge>
    <edge id=":917534105_1" function="internal">
        <lane id=":917534105_1_0" index="0" speed="12.50" length="6.22" shape="154.44,188.16 160.64,188.60"/>
    </edge>
    <edge id=":917534105_2" function="internal">
        <lane id=":917534105_2_0" index="0" speed="12.50" length="6.22" shape="157.31,191.47 157.79,185.27"/>
    </edge>
    <edge id=":917534105_3" function="internal">
        <lane id=":917534105_3_0" index="0" speed="12.50" length="5.02" shape="157.31,191.47 157.61,190.12 158.26,189.20 159.28,188.69 160.64,188.60"/>
    </edge>
    <edge id=":917536880_0" function="internal">
        <lane id=":917536880_0_0" index="0" speed="12.50" length="5.02" shape="750.86,548.75 750.95,550.13 751.45,551.15 752.37,551.81 753.70,552.12"/>
    </edge>
    <edge id=":917536880_1" function="internal">
        <lane id=":917536880_1_0" index="0" speed="12.50" length="6.23" shape="750.86,548.75 750.33,554.96"/>
    </edge>
    <edge id=":917536880_2" function="internal">
        <lane id=":917536880_2_0" index="0" speed="12.50" length="6.22" shape="747.51,551.58 753.70,552.12"/>
    </edge>
    <edge id=":917536880_3" function="internal">
        <lane id=":917536880_3_0" index="0" speed="12.50" length="5.02" shape="747.51,551.58 748.85,551.90 749.77,552.57 750.26,553.59 750.33,554.96"/>
    </edge>
    <edge id=":917541357_0" function="internal">
        <lane id=":917541357_0_0" index="0" speed="12.50" length="6.28" shape="145.18,406.79 138.91,406.31"/>
        <lane id=":917541357_0_1" index="1" speed="12.50" length="6.28" shape="145.43,403.50 139.16,403.02"/>
        <lane id=":917541357_0_2" index="2" speed="12.50" length="6.28" shape="145.68,400.21 139.42,399.73"/>
    </edge>
    <edge id=":917541357_3" function="internal">
        <lane id=":917541357_3_0" index="0" speed="12.50" length="5.11" shape="145.68,400.21 144.32,399.91 143.37,399.25 142.84,398.22 142.71,396.83"/>
    </edge>
    <edge id=":917541357_4" function="internal">
        <lane id=":917541357_4_0" index="0" speed="12.50" length="5.08" shape="141.83,409.66 141.75,408.29 141.24,407.27 140.29,406.61 138.91,406.31"/>
    </edge>
    <edge id=":917541357_5" function="internal">
        <lane id=":917541357_5_0" index="0" speed="12.50" length="12.86" shape="141.83,409.66 142.12,406.26 142.34,403.25 142.53,400.24 142.71,396.83"/>
    </edge>
    <edge id=":917541521_0" function="internal">
        <lane id=":917541521_0_0" index="0" speed="12.50" length="6.23" shape="377.34,101.06 371.13,100.62"/>
    </edge>
    <edge id=":917541521_1" function="internal">
        <lane id=":917541521_1_0" index="0" speed="12.50" length="5.01" shape="377.34,101.06 376.00,100.78 375.07,100.13 374.56,99.13 374.46,97.76"/>
    </edge>
    <edge id=":917541521_2" function="internal">
        <lane id=":917541521_2_0" index="0" speed="12.50" length="5.01" shape="373.97,103.97 373.89,102.59 373.39,101.58 372.47,100.92 371.13,100.62"/>
    </edge>
    <edge id=":917541521_3" function="internal">
        <lane id=":917541521_3_0" index="0" speed="12.50" length="6.23" shape="373.97,103.97 374.46,97.76"/>
    </edge>
    <edge id=":917543644_0" function="internal">
        <lane id=":917543644_0_0" index="0" speed="12.50" length="9.98" shape="621.02,449.05 619.49,446.51 618.06,444.67 616.73,443.52 615.50,443.08"/>
        <lane id=":917543644_0_1" index="1" speed="12.50" length="9.98" shape="623.92,447.47 621.90,444.23 619.87,441.87 617.82,440.39 615.76,439.79"/>
    </edge>
    <edge id=":917543644_2" function="internal">
        <lane id=":917543644_2_0" index="0" speed="12.50" length="10.75" shape="626.22,443.91 623.04,443.66 620.86,443.49 618.69,443.33 615.50,443.08"/>
        <lane id=":917543644_2_1" index="1" speed="12.50" length="10.75" shape="626.48,440.62 623.29,440.37 621.12,440.20 618.94,440.04 615.76,439.79"/>
        <lane id=":917543644_2_2" index="2" speed="12.50" length="10.75" shape="626.73,437.33 623.55,437.08 621.37,436.91 619.19,436.75 616.01,436.50"/>
    </edge>
    <edge id=":917560069_0" function="internal">
        <lane id=":917560069_0_0" index="0" speed="12.50" length="6.29" shape="668.38,338.97 662.10,338.51"/>
        <lane id=":917560069_0_1" index="1" speed="12.50" length="6.29" shape="668.61,335.67 662.35,335.22"/>
    </edge>
    <edge id=":917560069_2" function="internal">
        <lane id=":917560069_2_0" index="0" speed="12.50" length="5.01" shape="662.86,328.64 664.23,328.55 665.24,328.04 665.90,327.11 666.20,325.77"/>
    </edge>
    <edge id=":917560069_3" function="internal">
        <lane id=":917560069_3_0" index="0" speed="12.50" length="6.23" shape="662.86,328.64 669.06,329.09"/>
        <lane id=":917560069_3_1" index="1" speed="12.50" length="6.23" shape="662.61,331.93 668.83,332.38"/>
    </edge>
    <edge id=":917560069_5" function="internal">
        <lane id=":917560069_5_0" index="0" speed="12.50" length="5.05" shape="665.02,341.84 664.91,340.47 664.39,339.46 663.45,338.81 662.10,338.51"/>
    </edge>
    <edge id=":917560069_6" function="internal">
        <lane id=":917560069_6_0" index="0" speed="12.50" length="16.12" shape="665.02,341.84 665.29,337.93 665.59,333.80 665.89,329.68 666.20,325.77"/>
    </edge>
    <edge id=":917560069_7" function="internal">
        <lane id=":917560069_7_0" index="0" speed="12.50" length="3.12" shape="665.02,341.84 665.37,338.75"/>
    </edge>
    <edge id=":917560069_8" function="internal">
        <lane id=":917560069_8_0" index="0" speed="12.50" length="7.80" shape="665.37,338.75 665.50,337.62 666.30,334.64 667.41,332.89 668.83,332.38"/>
    </edge>
    <edge id=":917572664_0" function="internal">
        <lane id=":917572664_0_0" index="0" speed="12.50" length="5.00" shape="787.64,131.62 786.27,131.70 785.26,132.20 784.60,133.12 784.30,134.45"/>
    </edge>
    <edge id=":917572664_1" function="internal">
        <lane id=":917572664_1_0" index="0" speed="12.50" length="6.24" shape="787.64,131.62 781.42,131.07"/>
    </edge>
    <edge id=":917572664_2" function="internal">
        <lane id=":917572664_2_0" index="0" speed="12.50" length="6.24" shape="784.76,128.23 784.30,134.45"/>
    </edge>
    <edge id=":917572664_3" function="internal">
        <lane id=":917572664_3_0" index="0" speed="12.50" length="5.03" shape="784.76,128.23 784.47,129.58 783.82,130.50 782.80,131.00 781.42,131.07"/>
    </edge>
    <edge id=":917580765_0" function="internal">
        <lane id=":917580765_0_0" index="0" speed="12.50" length="6.20" shape="556.28,438.50 550.10,438.02"/>
        <lane id=":917580765_0_1" index="1" speed="12.50" length="6.20" shape="556.54,435.21 550.35,434.73"/>
        <lane id=":917580765_0_2" index="2" speed="12.50" length="6.20" shape="556.79,431.92 550.61,431.44"/>
    </edge>
    <edge id=":917580765_3" function="internal">
        <lane id=":917580765_3_0" index="0" speed="12.50" length="5.01" shape="556.79,431.92 555.46,431.62 554.53,430.96 554.03,429.95 553.93,428.58"/>
    </edge>
    <edge id=":917580765_4" function="internal">
        <lane id=":917580765_4_0" index="0" speed="12.50" length="5.01" shape="552.95,441.36 552.86,439.99 552.36,438.97 551.44,438.32 550.10,438.02"/>
    </edge>
    <edge id=":917580765_5" function="internal">
        <lane id=":917580765_5_0" index="0" speed="12.50" length="12.82" shape="552.95,441.36 553.22,437.96 553.46,434.97 553.68,431.98 553.93,428.58"/>
    </edge>
    <edge id=":917586289_0" function="internal">
        <lane id=":917586289_0_0" index="0" speed="12.50" length="5.01" shape="273.32,93.10 271.96,93.19 270.95,93.69 270.29,94.62 269.99,95.96"/>
    </edge>
    <edge id=":917586289_1" function="internal">
        <lane id=":917586289_1_0" index="0" speed="12.50" length="6.22" shape="273.32,93.10 267.12,92.62"/>
    </edge>
    <edge id=":917586289_2" function="internal">
        <lane id=":917586289_2_0" index="0" speed="12.50" length="6.23" shape="270.43,89.74 269.99,95.96"/>
    </edge>
    <edge id=":917586289_3" function="internal">
        <lane id=":917586289_3_0" index="0" speed="12.50" length="5.02" shape="270.43,89.74 270.15,91.09 269.51,92.02 268.50,92.53 267.12,92.62"/>
    </edge>
    <edge id=":917597065_0" function="internal">