<additional>
    <tlLogic id="1893973257" type="static" programID="1" offset="0">
        <phase duration="50" state="GGGGrr"/>
        <phase duration="5" state="yyyyrr"/>
        <phase duration="20" state="rrrrGG"/>
        <phase duration="5" state="rrrryy"/>
    </tlLogic>
    <tlLogic id="1893973276" type="static" programID="1" offset="0">
        <phase duration="50" state="GgGGr"/>
        <phase duration="5" state="yyyyr"/>
        <phase duration="20" state="rrGGG"/>
        <phase duration="5" state="rryyy"/>
    </tlLogic>
    <tlLogic id="917322276" type="static" programID="1" offset="0">
        <phase duration="50" state="GGGGrr"/>
        <phase duration="5" state="yyyyrr"/>
        <phase duration="20" state="rrrrGG"/>
        <phase duration="5" state="rrrryy"/>
    </tlLogic>
    <tlLogic id="917336870" type="static" programID="1" offset="0">
        <phase duration="20" state="GGrr"/>
        <phase duration="5" state="yyrr"/>
        <phase duration="20" state="rrGG"/>
        <phase duration="5" state="rryy"/>
    </tlLogic>
    <tlLogic id="917366828" type="static" programID="1" offset="0">
        <phase duration="20" state="GGrr"/>
        <phase duration="5" state="yyrr"/>
        <phase duration="20" state="rrGG"/>
        <phase duration="5" state="rryy"/>
    </tlLogic>
    <tlLogic id="917370760" type="static" programID="1" offset="0">
        <phase duration="50" state="GGGgrrrGGg"/>
        <phase duration="5" state="yyyyrrryyy"/>
        <phase duration="20" state="rrrrGGGrrr"/>
        <phase duration="5" state="rrrryyyrrr"/>
    </tlLogic>
    <tlLogic id="917374956" type="static" programID="1" offset="0">
        <phase duration="20" state="GGrr"/>
        <phase duration="5" state="yyrr"/>
        <phase duration="20" state="rrGG"/>
        <phase duration="5" state="rryy"/>
    </tlLogic>
    <tlLogic id="917389528" type="static" programID="1" offset="0">
        <phase duration="20" state="GGrr"/>
        <phase duration="5" state="yyrr"/>
        <phase duration="20" state="rrGG"/>
        <phase duration="5" state="rryy"/>
    </tlLogic>
    <tlLogic id="917414594" type="static" programID="1" offset="0">
        <phase duration="50" state="GGGrr"/>
        <phase duration="5" state="yyyrr"/>
        <phase duration="20" state="rrrGG"/>
        <phase duration="5" state="rrryy"/>
    </tlLogic>
    <tlLogic id="917440741" type="static" programID="1" offset="0">
        <phase duration="20" state="GGrr"/>
        <phase duration="5" state="yyrr"/>
        <phase duration="20" state="rrGG"/>
        <phase duration="5" state="rryy"/>
    </tlLogic>
    <tlLogic id="917473596" type="static" programID="1" offset="0">
        <phase duration="20" state="GGrr"/>
        <phase duration="5" state="yyrr"/>
        <phase duration="20" state="rrGG"/>
        <phase duration="5" state="rryy"/>
    </tlLogic>
    <tlLogic id="917482509" type="static" programID="1" offset="0">
        <phase duration="20" state="GGrr"/>
        <phase duration="5" state="yyrr"/>
        <phase duration="20" state="rrGG"/>
        <phase duration="5" state="rryy"/>
    </tlLogic>
    <tlLogic id="917490297" type="static" programID="1" offset="0">
        <phase duration="50" state="GGGGrrr"/>
        <phase duration="5" state="yyyyrrr"/>
        <phase duration="20" state="rrrrGGG"/>
        <phase duration="5" state="rrrryyy"/>
    </tlLogic>
    <tlLogic id="917490607" type="static" programID="1" offset="0">
        <phase duration="20" state="GGrr"/>
        <phase duration="5" state="yyrr"/>
        <phase duration="20" state="rrGG"/>
        <phase duration="5" state="rryy"/>
    </tlLogic>
    <tlLogic id="917494347" type="static" programID="1" offset="0">
        <phase duration="50" state="GGGGrrr"/>
        <phase duration="5" state="yyyyrrr"/>
        <phase duration="20" state="rrrrGGG"/>
        <phase duration="5" state="rrrryyy"/>
    </tlLogic>
    <tlLogic id="917494705" type="static" programID="1" offset="0">
        <phase duration="20" state="GGrr"/>
        <phase duration="5" state="yyrr"/>
        <phase duration="20" state="rrGG"/>
        <phase duration="5" state="rryy"/>
    </tlLogic>
    <tlLogic id="917500859" type="static" programID="1" offset="0">
        <phase duration="50" state="GGGgrrrGGg"/>
        <phase duration="5" state="yyyyrrryyy"/>
        <phase duration="20" state="rrrrGGGrrr"/>
        <phase duration="5" state="rrrryyyrrr"/>
    </tlLogic>
    <tlLogic id="917511160" type="static" programID="1" offset="0">
        <phase duration="20" state="GGrr"/>
        <phase duration="5" state="yyrr"/>
        <phase duration="20" state="rrGG"/>
        <phase duration="5" state="rryy"/>
    </tlLogic>
    <tlLogic id="917533316" type="static" programID="1" offset="0">
        <phase duration="50" state="GGGgrrrGGg"/>
        <phase duration="5" state="yyyyrrryyy"/>
        <phase duration="20" state="rrrrGGGrrr"/>
        <phase duration="5" state="rrrryyyrrr"/>
    </tlLogic>
    <tlLogic id="917536880" type="static" programID="1" offset="0">
        <phase duration="20" state="GGrr"/>
        <phase duration="5" state="yyrr"/>
        <phase duration="20" state="rrGG"/>
        <phase duration="5" state="rryy"/>
    </tlLogic>
    <tlLogic id="917541357" type="static" programID="1" offset="0">
        <phase duration="50" state="GGGGrr"/>
        <phase duration="5" state="yyyyrr"/>
        <phase duration="20" state="rrrrGG"/>
        <phase duration="5" state="rrrryy"/>
    </tlLogic>
    <tlLogic id="917541521" type="static" programID="1" offset="0">
        <phase duration="20" state="GGrr"/>
        <phase duration="5" state="yyrr"/>
        <phase duration="20" state="rrGG"/>
        <phase duration="5" state="rryy"/>
    </tlLogic>
    <tlLogic id="917560069" type="static" programID="1" offset="0">
        <phase duration="50" state="GGgGGGgrrr"/>
        <phase duration="5" state="yyyyyyyrrr"/>
        <phase duration="20" state="rrrrrrrGGG"/>
        <phase duration="5" state="rrrrrrryyy"/>
    </tlLogic>
    <tlLogic id="917572664" type="static" programID="1" offset="0">
        <phase duration="20" state="GGrr"/>
        <phase duration="5" state="yyrr"/>
        <phase duration="20" state="rrGG"/>
        <phase duration="5" state="rryy"/>
    </tlLogic>
    <tlLogic id="917580765" type="static" programID="1" offset="0">
        <phase duration="50" state="GGGGrr"/>
        <phase duration="5" state="yyyyrr"/>
        <phase duration="20" state="rrrrGG"/>
        <phase duration="5" state="rrrryy"/>
    </tlLogic>
    <tlLogic id="917586289" type="static" programID="1" offset="0">
        <phase duration="20" state="GGrr"/>
        <phase duration="5" state="yyrr"/>
        <phase duration="20" state="rrGG"/>
        <phase duration="5" state="rryy"/>
    </tlLogic>
    <tlLogic id="917597065" type="static" programID="1" offset="0">
        <phase duration="50" state="GGGGrrr"/>
        <phase duration="5" state="yyyyrrr"/>
        <phase duration="20" state="rrrrGGG"/>
        <phase duration="5" state="rrrryyy"/>
    </tlLogic>
    <tlLogic id="917606900" type="static" programID="1" offset="0">
        <phase duration="20" state="GGrr"/>
        <phase duration="5" state="yyrr"/>
        <phase duration="20" state="rrGG"/>
        <phase duration="5" state="rryy"/>
    </tlLogic>
    <tlLogic id="917609087" type="static" programID="1" offset="0">
        <phase duration="20" state="GGrr"/>
        <phase duration="5" state="yyrr"/>
        <phase duration="20" state="rrGG"/>
        <phase duration="5" state="rryy"/>
    </tlLogic>
    <tlLogic id="917626193" type="static" programID="1" offset="0">
        <phase duration="20" state="GGrr"/>
        <phase duration="5" state="yyrr"/>
        <phase duration="20" state="rrGG"/>
        <phase duration="5" state="rryy"/>
    </tlLogic>
    <tlLogic id="917664545" type="static" programID="1" offset="0">
        <phase duration="20" state="GGrr"/>
        <phase duration="5" state="yyrr"/>
        <phase duration="20" state="rrGG"/>
        <phase duration="5" state="rryy"/>
    </tlLogic>
    <tlLogic id="917671857" type="static" programID="1" offset="0">
        <phase duration="20" state="GGrr"/>
        <phase duration="5" state="yyrr"/>
        <phase duration="20" state="rrGG"/>
        <phase duration="5" state="rryy"/>
    </tlLogic>
    <tlLogic id="917686942" type="static" programID="1" offset="0">
        <phase duration="50" state="GGgGGGgrrr"/>
        <phase duration="5" state="yyyyyyyrrr"/>
        <phase duration="20" state="rrrrrrrGGG"/>
        <phase duration="5" state="rrrrrrryyy"/>
    </tlLogic>
    <tlLogic id="917735203" type="static" programID="1" offset="0">
        <phase duration="50" state="GGgGGGgrrr"/>
        <phase duration="5" state="yyyyyyyrrr"/>
        <phase duration="20" state="rrrrrrrGGG"/>
        <phase duration="5" state="rrrrrrryyy"/>
    </tlLogic>
</additional>
