<additional>
   <tlLogic id="1893973257" type="static" programID="1" offset="0">
       <phase duration="16" state="GGGGrr"/>
       <phase duration="12" state="yyyyrr"/>
       <phase duration="42" state="rrrrGG"/>
       <phase duration="48" state="rrrryy"/>
   </tlLogic>
   <tlLogic id="1893973276" type="static" programID="1" offset="0">
       <phase duration="16" state="GgGGr"/>
       <phase duration="35" state="yyyyr"/>
       <phase duration="12" state="rrGGG"/>
       <phase duration="41" state="rryyy"/>
   </tlLogic>
   <tlLogic id="917322276" type="static" programID="1" offset="0">
       <phase duration="8" state="GGGGrr"/>
       <phase duration="6" state="yyyyrr"/>
       <phase duration="38" state="rrrrGG"/>
       <phase duration="46" state="rrrryy"/>
   </tlLogic>
   <tlLogic id="917336870" type="static" programID="1" offset="0">
       <phase duration="23" state="GGrr"/>
       <phase duration="29" state="yyrr"/>
       <phase duration="30" state="rrGG"/>
       <phase duration="11" state="rryy"/>
   </tlLogic>
   <tlLogic id="917366828" type="static" programID="1" offset="0">
       <phase duration="28" state="GGrr"/>
       <phase duration="41" state="yyrr"/>
       <phase duration="6" state="rrGG"/>
       <phase duration="49" state="rryy"/>
   </tlLogic>
   <tlLogic id="917370760" type="static" programID="1" offset="0">
       <phase duration="9" state="GGGgrrrGGg"/>
       <phase duration="30" state="yyyyrrryyy"/>
       <phase duration="9" state="rrrrGGGrrr"/>
       <phase duration="16" state="rrrryyyrrr"/>
   </tlLogic>
   <tlLogic id="917374956" type="static" programID="1" offset="0">
       <phase duration="22" state="GGrr"/>
       <phase duration="45" state="yyrr"/>
       <phase duration="25" state="rrGG"/>
       <phase duration="37" state="rryy"/>
   </tlLogic>
   <tlLogic id="917389528" type="static" programID="1" offset="0">
       <phase duration="29" state="GGrr"/>
       <phase duration="32" state="yyrr"/>
       <phase duration="8" state="rrGG"/>
       <phase duration="11" state="rryy"/>
   </tlLogic>
   <tlLogic id="917414594" type="static" programID="1" offset="0">
       <phase duration="39" state="GGGrr"/>
       <phase duration="58" state="yyyrr"/>
       <phase duration="23" state="rrrGG"/>
       <phase duration="43" state="rrryy"/>
   </tlLogic>
   <tlLogic id="917440741" type="static" programID="1" offset="0">
       <phase duration="24" state="GGrr"/>
       <phase duration="29" state="yyrr"/>
       <phase duration="57" state="rrGG"/>
       <phase duration="23" state="rryy"/>
   </tlLogic>
   <tlLogic id="917473596" type="static" programID="1" offset="0">
       <phase duration="26" state="GGrr"/>
       <phase duration="10" state="yyrr"/>
       <phase duration="47" state="rrGG"/>
       <phase duration="45" state="rryy"/>
   </tlLogic>
   <tlLogic id="917482509" type="static" programID="1" offset="0">
       <phase duration="24" state="GGrr"/>
       <phase duration="56" state="yyrr"/>
       <phase duration="54" state="rrGG"/>
       <phase duration="8" state="rryy"/>
   </tlLogic>
   <tlLogic id="917490297" type="static" programID="1" offset="0">
       <phase duration="51" state="GGGGrrr"/>
       <phase duration="14" state="yyyyrrr"/>
       <phase duration="35" state="rrrrGGG"/>
       <phase duration="9" state="rrrryyy"/>
   </tlLogic>
   <tlLogic id="917490607" type="static" programID="1" offset="0">
       <phase duration="29" state="GGrr"/>
       <phase duration="44" state="yyrr"/>
       <phase duration="46" state="rrGG"/>
       <phase duration="47" state="rryy"/>
   </tlLogic>
   <tlLogic id="917494347" type="static" programID="1" offset="0">
       <phase duration="12" state="GGGGrrr"/>
       <phase duration="8" state="yyyyrrr"/>
       <phase duration="8" state="rrrrGGG"/>
       <phase duration="14" state="rrrryyy"/>
   </tlLogic>
   <tlLogic id="917494705" type="static" programID="1" offset="0">
       <phase duration="25" state="GGrr"/>
       <phase duration="26" state="yyrr"/>
       <phase duration="33" state="rrGG"/>
       <phase duration="27" state="rryy"/>
   </tlLogic>
   <tlLogic id="917500859" type="static" programID="1" offset="0">
       <phase duration="9" state="GGGgrrrGGg"/>
       <phase duration="40" state="yyyyrrryyy"/>
       <phase duration="59" state="rrrrGGGrrr"/>
       <phase duration="31" state="rrrryyyrrr"/>
   </tlLogic>
   <tlLogic id="917511160" type="static" programID="1" offset="0">
       <phase duration="39" state="GGrr"/>
       <phase duration="41" state="yyrr"/>
       <phase duration="35" state="rrGG"/>
       <phase duration="46" state="rryy"/>
   </tlLogic>
   <tlLogic id="917533316" type="static" programID="1" offset="0">
       <phase duration="14" state="GGGgrrrGGg"/>
       <phase duration="5" state="yyyyrrryyy"/>
       <phase duration="57" state="rrrrGGGrrr"/>
       <phase duration="9" state="rrrryyyrrr"/>
   </tlLogic>
   <tlLogic id="917536880" type="static" programID="1" offset="0">
       <phase duration="55" state="GGrr"/>
       <phase duration="19" state="yyrr"/>
       <phase duration="51" state="rrGG"/>
       <phase duration="29" state="rryy"/>
   </tlLogic>
   <tlLogic id="917541357" type="static" programID="1" offset="0">
       <phase duration="11" state="GGGGrr"/>
       <phase duration="36" state="yyyyrr"/>
       <phase duration="56" state="rrrrGG"/>
       <phase duration="47" state="rrrryy"/>
   </tlLogic>
   <tlLogic id="917541521" type="static" programID="1" offset="0">
       <phase duration="52" state="GGrr"/>
       <phase duration="16" state="yyrr"/>
       <phase duration="6" state="rrGG"/>
       <phase duration="55" state="rryy"/>
   </tlLogic>
   <tlLogic id="917560069" type="static" programID="1" offset="0">
       <phase duration="37" state="GGgGGGgrrr"/>
       <phase duration="47" state="yyyyyyyrrr"/>
       <phase duration="42" state="rrrrrrrGGG"/>
       <phase duration="21" state="rrrrrrryyy"/>
   </tlLogic>
   <tlLogic id="917572664" type="static" programID="1" offset="0">
       <phase duration="16" state="GGrr"/>
       <phase duration="56" state="yyrr"/>
       <phase duration="20" state="rrGG"/>
       <phase duration="35" state="rryy"/>
   </tlLogic>
   <tlLogic id="917580765" type="static" programID="1" offset="0">
       <phase duration="35" state="GGGGrr"/>
       <phase duration="21" state="yyyyrr"/>
       <phase duration="53" state="rrrrGG"/>
       <phase duration="9" state="rrrryy"/>
   </tlLogic>
   <tlLogic id="917586289" type="static" programID="1" offset="0">
       <phase duration="30" state="GGrr"/>
       <phase duration="51" state="yyrr"/>
       <phase duration="43" state="rrGG"/>
       <phase duration="57" state="rryy"/>
   </tlLogic>
   <tlLogic id="917597065" type="static" programID="1" offset="0">
       <phase duration="10" state="GGGGrrr"/>
       <phase duration="42" state="yyyyrrr"/>
       <phase duration="42" state="rrrrGGG"/>
       <phase duration="9" state="rrrryyy"/>
   </tlLogic>
   <tlLogic id="917606900" type="static" programID="1" offset="0">
       <phase duration="52" state="GGrr"/>
       <phase duration="26" state="yyrr"/>
       <phase duration="23" state="rrGG"/>
       <phase duration="27" state="rryy"/>
   </tlLogic>
   <tlLogic id="917609087" type="static" programID="1" offset="0">
       <phase duration="11" state="GGrr"/>
       <phase duration="36" state="yyrr"/>
       <phase duration="32" state="rrGG"/>
       <phase duration="37" state="rryy"/>
   </tlLogic>
   <tlLogic id="917626193" type="static" programID="1" offset="0">
       <phase duration="27" state="GGrr"/>
       <phase duration="5" state="yyrr"/>
       <phase duration="22" state="rrGG"/>
       <phase duration="33" state="rryy"/>
   </tlLogic>
   <tlLogic id="917664545" type="static" programID="1" offset="0">
       <phase duration="43" state="GGrr"/>
       <phase duration="58" state="yyrr"/>
       <phase duration="17" state="rrGG"/>
       <phase duration="23" state="rryy"/>
   </tlLogic>
   <tlLogic id="917671857" type="static" programID="1" offset="0">
       <phase duration="47" state="GGrr"/>
       <phase duration="39" state="yyrr"/>
       <phase duration="40" state="rrGG"/>
       <phase duration="24" state="rryy"/>
   </tlLogic>
   <tlLogic id="917686942" type="static" programID="1" offset="0">
       <phase duration="39" state="GGgGGGgrrr"/>
       <phase duration="54" state="yyyyyyyrrr"/>
       <phase duration="8" state="rrrrrrrGGG"/>
       <phase duration="57" state="rrrrrrryyy"/>
   </tlLogic>
   <tlLogic id="917735203" type="static" programID="1" offset="0">
       <phase duration="44" state="GGgGGGgrrr"/>
       <phase duration="5" state="yyyyyyyrrr"/>
       <phase duration="23" state="rrrrrrrGGG"/>
       <phase duration="12" state="rrrrrrryyy"/>
   </tlLogic>
</additional>
