<?xml version="1.0" encoding="UTF-8"?>

<!-- generated on 08/15/14 01:37:45 by SUMO duarouter Version 0.20.0
<?xml version="1.0" encoding="UTF-8"?>

<configuration xmlns:xsi="http://www.w3.org/2001/XMLSchema-instance" xsi:noNamespaceSchemaLocation="http://sumo-sim.org/xsd/duarouterConfiguration.xsd">

    <input>
        <net-file value="red.net.xml"/>
        <trip-files value="trips.trips.xml"/>
    </input>

    <output>
        <output-file value="red.rou.xml"/>
    </output>

    <processing>
        <ignore-errors value="true"/>
    </processing>

    <time>
        <begin value="0"/>
        <end value="300.0"/>
    </time>

</configuration>
-->

<routes>
    <vehicle id="0" depart="0.00" departLane="best" departPos="random" departSpeed="max">
        <route edges="78117315#2 78117315#3 78114385 179394849#1 179394849#2 180834257 180834256#0 180834256#1"/>
    </vehicle>
    <vehicle id="1" depart="1.00" departLane="best" departPos="random" departSpeed="max">
        <route edges="-78115303 -78113355#1 78104928#1 78104928#2 211973000#1 211973000#2 203831288 180834252#0 78103797 78119527#2 203831291 180834254#0 180834254#1"/>
    </vehicle>
    <vehicle id="2" depart="2.00" departLane="best" departPos="random" departSpeed="max">
        <route edges="-78106480 -78104928#1 -78113355#0"/>
    </vehicle>
    <vehicle id="3" depart="3.00" departLane="best" departPos="random" departSpeed="max">
        <route edges="179182969#0 -78099193#1 -78099193#0 173001467#1 219475332#0 219475332#1"/>
    </vehicle>
    <vehicle id="4" depart="4.00" departLane="best" departPos="random" departSpeed="max">
        <route edges="-78106480 78104928#2 211973000#1 211973000#2 203831288 180834252#0 180834252#1 180834252#2 219475332#0 78119527#0"/>
    </vehicle>
    <vehicle id="5" depart="5.00" departLane="best" departPos="random" departSpeed="max">
        <route edges="179182969#0 179182969#1 164947510 78103797 78119527#2 203831291 180834254#0 78247201 211973000#2 180834256#0 -78113355#3 -78113355#2 78115303"/>
    </vehicle>
    <vehicle id="6" depart="6.00" departLane="best" departPos="random" departSpeed="max">
        <route edges="211973000#0 211973000#1 211973000#2 180834256#0 180834256#1"/>
    </vehicle>
    <vehicle id="7" depart="7.00" departLane="best" departPos="random" departSpeed="max">
        <route edges="-78108438 -78113355#2 -78113355#1 78104928#1 78104928#2 211973000#1 211973000#2 203831288 180834252#0 180834252#1 180834252#2 219475332#0 219475332#1"/>
    </vehicle>
    <vehicle id="8" depart="8.00" departLane="best" departPos="random" departSpeed="max">
        <route edges="-78117315#2 78117315#2 78117315#3 78114385 179394849#1 179394849#2 180834257 180834256#0 -78113355#3 78108438"/>
    </vehicle>
    <vehicle id="9" depart="9.00" departLane="best" departPos="random" departSpeed="max">
        <route edges="179182969#0 -78099193#1 -78099193#0 -173001467#0"/>
    </vehicle>
    <vehicle id="10" depart="10.00" departLane="best" departPos="random" departSpeed="max">
        <route edges="-78113355#3 -78113355#2 -78113355#1 78104928#1 78104928#2 211973000#1 211973000#2 203831288 180834252#0 78103797 78119527#2 203831291 180834254#0 180834254#1"/>
    </vehicle>
    <vehicle id="11" depart="11.00" departLane="best" departPos="random" departSpeed="max">
        <route edges="179182969#0 179182969#1 164947510 78103797 78119527#2 203831291 180834254#0 78247201 211973000#2 180834256#0 -78113355#3 -78113355#2 -78113355#1 -78104928#0"/>
    </vehicle>
    <vehicle id="12" depart="12.00" departLane="best" departPos="random" departSpeed="max">
        <route edges="-78108438 -78113355#2 -78113355#1 78104928#1 78106480"/>
    </vehicle>
    <vehicle id="13" depart="13.00" departLane="best" departPos="random" departSpeed="max">
        <route edges="190443984#1 78115276#1 78100359#2 78119527#1 78119527#2"/>
    </vehicle>
    <vehicle id="14" depart="14.00" departLane="best" departPos="random" departSpeed="max">
        <route edges="78117315#0 78117315#1 78100359#1 -78100359#1"/>
    </vehicle>
    <vehicle id="15" depart="15.00" departLane="best" departPos="random" departSpeed="max">
        <route edges="-173001466#1 78117315#3 78114385 179394849#1 179394849#2 180834257 180834256#0 -78113355#3 -78113355#2 -78113355#1 78104928#1 78106480"/>
    </vehicle>
    <vehicle id="16" depart="16.00" departLane="best" departPos="random" departSpeed="max">
        <route edges="173001467#0 173001467#1 219475332#0 78119527#0 -78100359#2 -78115276#1 -78115276#0"/>
    </vehicle>
    <vehicle id="17" depart="17.00" departLane="best" departPos="random" departSpeed="max">
        <route edges="180834252#2 219475332#0 78119527#0 78119527#1 78119527#2 203831291 180834254#0 180834254#1"/>
    </vehicle>
    <vehicle id="18" depart="18.00" departLane="best" departPos="random" departSpeed="max">
        <route edges="78115369 78119527#0 78119527#1 176269589 173001466#0 173001466#1"/>
    </vehicle>
    <vehicle id="19" depart="19.00" departLane="best" departPos="random" departSpeed="max">
        <route edges="180834252#0 78103797 78119527#2 203831291 180834254#0 180834254#1"/>
    </vehicle>
    <vehicle id="20" depart="20.00" departLane="best" departPos="random" departSpeed="max">
        <route edges="78115369 78119527#0 -78100359#2 -78100359#1 -78100359#0"/>
    </vehicle>
    <vehicle id="21" depart="21.00" departLane="best" departPos="random" departSpeed="max">
        <route edges="179182969#0 179182969#1 164947510 78103797 176269589 -78115276#2 -78100359#1 -78117315#1 -78117315#0"/>
    </vehicle>
    <vehicle id="22" depart="22.00" departLane="best" departPos="random" departSpeed="max">
        <route edges="179394849#0 179394849#1 78102930 78247201 211973000#2 203831288 180834252#0 180834252#1 180834252#2 -173001467#1 -173001467#0"/>
    </vehicle>
    <vehicle id="23" depart="23.00" departLane="best" departPos="random" departSpeed="max">
        <route edges="78104928#0 78104928#1 78104928#2 211973000#1 211973000#2 203831288 180834252#0 78103797 78119527#2 180834259#0 180834259#1"/>
    </vehicle>
    <vehicle id="24" depart="24.00" departLane="best" departPos="random" departSpeed="max">
        <route edges="173001467#0 173001467#1 219475332#0 78119527#0 78119527#1 78119527#2"/>
    </vehicle>
    <vehicle id="25" depart="25.00" departLane="best" departPos="random" departSpeed="max">
        <route edges="78104928#0 78113355#1 78113355#2 78113355#3 180834256#1"/>
    </vehicle>
    <vehicle id="26" depart="26.00" departLane="best" departPos="random" departSpeed="max">
        <route edges="78119527#0 78119527#1 78119527#2 203831291 180834254#0 78247201 211973000#2 180834256#0 -78113355#3 -78113355#2"/>
    </vehicle>
    <vehicle id="27" depart="27.00" departLane="best" departPos="random" departSpeed="max">
        <route edges="179182969#0 179182969#1 164947510 78103797 78119527#2 203831291 180834254#0 180834254#1"/>
    </vehicle>
    <vehicle id="28" depart="28.00" departLane="best" departPos="random" departSpeed="max">
        <route edges="-78108438 -78113355#2 -78113355#1 78104928#1 78104928#2 211973000#1 211973000#2 203831288 180834252#0 78103797 78119527#2 203831291 180834254#0 180834254#1"/>
    </vehicle>
    <vehicle id="29" depart="29.00" departLane="best" departPos="random" departSpeed="max">
        <route edges="78113355#0 78113355#1 78115303"/>
    </vehicle>
    <vehicle id="30" depart="30.00" departLane="best" departPos="random" departSpeed="max">
        <route edges="173001467#1 219475332#0 78119527#0 78119527#1 78119527#2 203831291 180834254#0 78247201 211973000#2 180834256#0 -78113355#3 -78113355#2 -78113355#1 -78113355#0"/>
    </vehicle>
    <vehicle id="31" depart="31.00" departLane="best" departPos="random" departSpeed="max">
        <route edges="78115276#1 78100359#2 78119527#1 78119527#2 203831291 180834254#0 180834254#1"/>
    </vehicle>
    <vehicle id="32" depart="32.00" departLane="best" departPos="random" departSpeed="max">
        <route edges="211973000#0 211973000#1 211973000#2 203831288 180834252#0 180834252#1 180834252#2 -173001467#1 -173001467#0"/>
    </vehicle>
    <vehicle id="33" depart="33.00" departLane="best" departPos="random" departSpeed="max">
        <route edges="-78100359#5 -78100359#4 -78100359#3 -78100359#2 -78115276#1 -78115276#0"/>
    </vehicle>
    <vehicle id="34" depart="34.00" departLane="best" departPos="random" departSpeed="max">
        <route edges="78115369 78119527#0 78119527#1 78119527#2 203831291 180834254#0 78247201 211973000#2 180834256#0 -78113355#3 -78113355#2 -78113355#1 -78113355#0"/>
    </vehicle>
    <vehicle id="35" depart="35.00" departLane="best" departPos="random" departSpeed="max">
        <route edges="211973000#0 211973000#1 211973000#2 203831288 180834252#0 78103797 176269589 -78115276#2 -78100359#1"/>
    </vehicle>
    <vehicle id="36" depart="36.00" departLane="best" departPos="random" departSpeed="max">
        <route edges="78104928#0 78104928#1 78104928#2 211973000#1 211973000#2 203831288 180834252#0 78103797 78119527#2 180834259#0 180834259#1 78114385 173001578"/>
    </vehicle>
    <vehicle id="37" depart="37.00" departLane="best" departPos="random" departSpeed="max">
        <route edges="179394849#0 179394849#1 78102930 180834254#1"/>
    </vehicle>
    <vehicle id="38" depart="38.00" departLane="best" departPos="random" departSpeed="max">
        <route edges="190443984#0 78117315#1 78117315#2 78117315#3 78114385 179394849#1 78102930 180834254#1"/>
    </vehicle>
    <vehicle id="39" depart="39.00" departLane="best" departPos="random" departSpeed="max">
        <route edges="190443984#0 78117315#1 78117315#2 78117315#3 78114385 173001578"/>
    </vehicle>
    <vehicle id="40" depart="40.00" departLane="best" departPos="random" departSpeed="max">
        <route edges="211973000#0 211973000#1 211973000#2 203831288 180834252#0 78103797 78119527#2 180834259#0 180834259#1 180834259#2"/>
    </vehicle>
    <vehicle id="41" depart="41.00" departLane="best" departPos="random" departSpeed="max">
        <route edges="179394849#0 179394849#1 78102930 180834254#1"/>
    </vehicle>
    <vehicle id="42" depart="42.00" departLane="best" departPos="random" departSpeed="max">
        <route edges="-78115303 -78113355#1 78104928#1 78104928#2 211973000#1 211973000#2 203831288 180834252#0 78103797 78119527#2 180834259#0 180834259#1 78114385 173001578"/>
    </vehicle>
    <vehicle id="43" depart="43.00" departLane="best" departPos="random" departSpeed="max">
        <route edges="211973000#2 203831288 180834252#0 78103797 78119527#2 203831291 180834254#0 180834254#1"/>
    </vehicle>
    <vehicle id="44" depart="44.00" departLane="best" departPos="random" departSpeed="max">
        <route edges="179394849#0 -78114385 -78117315#3 -78117315#2 -78117315#1 -78117315#0"/>
    </vehicle>
    <vehicle id="45" depart="45.00" departLane="best" departPos="random" departSpeed="max">
        <route edges="-78115303 -78113355#1 78104928#1 78104928#2 211973000#1 211973000#2 203831288 180834252#0 78103797 176269589 173001466#0 173001466#1"/>
    </vehicle>
    <vehicle id="46" depart="46.00" departLane="best" departPos="random" departSpeed="max">
        <route edges="-173001466#1 78117315#3 78114385 179394849#1 179394849#2 180834257"/>
    </vehicle>
    <vehicle id="47" depart="47.00" departLane="best" departPos="random" departSpeed="max">
        <route edges="78099193#0 -78100359#4 -78100359#3 -78100359#2 -78115276#1 -78115276#0"/>
    </vehicle>
    <vehicle id="48" depart="48.00" departLane="best" departPos="random" departSpeed="max">
        <route edges="179394849#0 179394849#1 179394849#2 180834257 180834256#0 180834256#1"/>
    </vehicle>
    <vehicle id="49" depart="49.00" departLane="best" departPos="random" departSpeed="max">
        <route edges="-78108438 -78113355#2 -78113355#1 78104928#1 78104928#2 211973000#1 211973000#2 203831288 180834252#0 78103797 176269589 -78115276#2 -78100359#1 -78117315#1 -78117315#0"/>
    </vehicle>
    <vehicle id="50" depart="50.00" departLane="best" departPos="random" departSpeed="max">
        <route edges="78100359#0 78117315#2 78117315#3 78114385 179394849#1 179394849#2 180834257 180834256#0 180834256#1"/>
    </vehicle>
    <vehicle id="51" depart="51.00" departLane="best" departPos="random" departSpeed="max">
        <route edges="78104928#0 78104928#1 78104928#2 211973000#1 211973000#2 203831288 180834252#0 78103797 78119527#2 203831291 180834254#0 180834254#1"/>
    </vehicle>
    <vehicle id="52" depart="52.00" departLane="best" departPos="random" departSpeed="max">
        <route edges="-78104928#2 78104928#2 211973000#1 211973000#2 203831288 180834252#0 78103797 176269589 -78115276#2"/>
    </vehicle>
    <vehicle id="53" depart="53.00" departLane="best" departPos="random" departSpeed="max">
        <route edges="78100359#4 -78100359#4 -78100359#3 78119527#1 78119527#2 203831291 180834254#0 78247201 211973000#2 180834256#0 180834256#1"/>
    </vehicle>
    <vehicle id="54" depart="54.00" departLane="best" departPos="random" departSpeed="max">
        <route edges="78115369 78119527#0 78119527#1 78119527#2 203831291 180834254#0 180834254#1"/>
    </vehicle>
    <vehicle id="55" depart="55.00" departLane="best" departPos="random" departSpeed="max">
        <route edges="164947510 78103797 176269589 -78115276#2 -78100359#1 -78100359#0"/>
    </vehicle>
    <vehicle id="56" depart="56.00" departLane="best" departPos="random" departSpeed="max">
        <route edges="78117315#0 78117315#1 78117315#2 78117315#3 78114385 179394849#1 78102930 180834254#1"/>
    </vehicle>
    <vehicle id="57" depart="57.00" departLane="best" departPos="random" departSpeed="max">
        <route edges="-78108438 -78113355#2 -78113355#1 78104928#1 78104928#2 211973000#1 211973000#2 203831288 180834252#0 180834252#1 -78100359#3 -78100359#2"/>
    </vehicle>
    <vehicle id="58" depart="58.00" departLane="best" departPos="random" departSpeed="max">
        <route edges="180834252#0 78103797 78119527#2 180834259#0 180834259#1"/>
    </vehicle>
    <vehicle id="59" depart="59.00" departLane="best" departPos="random" departSpeed="max">
        <route edges="211973000#0 211973000#1 211973000#2 203831288 180834252#0 78103797 176269589 -78115276#2 -78100359#1 -78117315#1 -78117315#0"/>
    </vehicle>
    <vehicle id="60" depart="60.00" departLane="best" departPos="random" departSpeed="max">
        <route edges="180834252#1 -78100359#3 78119527#1 78119527#2 203831291 180834254#0 78247201 211973000#2 180834256#0 -78113355#3 -78113355#2 -78113355#1 -78113355#0"/>
    </vehicle>
    <vehicle id="61" depart="61.00" departLane="best" departPos="random" departSpeed="max">
        <route edges="78104928#1 78104928#2 211973000#1 211973000#2 203831288 180834252#0 180834252#1 180834252#2 -173001467#1 -173001467#0"/>
    </vehicle>
    <vehicle id="62" depart="62.00" departLane="best" departPos="random" departSpeed="max">
        <route edges="-78108438 -78113355#2 -78113355#1 78104928#1 78104928#2 211973000#1 211973000#2 203831288 180834252#0 78103797 78119527#2 203831291 180834254#0 180834254#1"/>
    </vehicle>
    <vehicle id="63" depart="63.00" departLane="best" departPos="random" departSpeed="max">
        <route edges="78115369 78119527#0 -78100359#2 -78100359#1 -78117315#1 -78117315#0"/>
    </vehicle>
    <vehicle id="64" depart="64.00" departLane="best" departPos="random" departSpeed="max">
        <route edges="180834252#2 219475332#0 78119527#0 78119527#1 78119527#2 203831291 180834254#0 78247201 211973000#2 180834256#0 -78113355#3 78108438"/>
    </vehicle>
    <vehicle id="65" depart="65.00" departLane="best" departPos="random" departSpeed="max">
        <route edges="179394849#0 179394849#1 78102930 78247201 211973000#2 203831288 180834252#0 180834252#1 78100359#4 78100359#5"/>
    </vehicle>
    <vehicle id="66" depart="66.00" departLane="best" departPos="random" departSpeed="max">
        <route edges="-78100359#1 78117315#2 78117315#3 78114385 179394849#1 179394849#2 180834257 180834256#0 180834256#1"/>
    </vehicle>
    <vehicle id="67" depart="67.00" departLane="best" departPos="random" departSpeed="max">
        <route edges="179394849#1 179394849#2 180834257 180834256#0 180834256#1"/>
    </vehicle>
    <vehicle id="68" depart="68.00" departLane="best" departPos="random" departSpeed="max">
        <route edges="173001467#0 173001467#1 219475332#0 78119527#0 78119527#1 78119527#2 180834259#0 180834259#1 180834259#2"/>
    </vehicle>
    <vehicle id="69" depart="69.00" departLane="best" departPos="random" departSpeed="max">
        <route edges="211973000#1 211973000#2 203831288 180834252#0 78103797 78119527#2 180834259#0 180834259#1 180834259#2"/>
    </vehicle>
    <vehicle id="70" depart="70.00" departLane="best" departPos="random" departSpeed="max">
        <route edges="-78108438 -78113355#2 -78113355#1 78104928#1 78104928#2 211973000#1 211973000#2 203831288 180834252#0 180834252#1 180834252#2 219475332#0"/>
    </vehicle>
    <vehicle id="71" depart="71.00" departLane="best" departPos="random" departSpeed="max">
        <route edges="78119527#1 78119527#2 203831291 180834254#0 78247201 211973000#2 180834256#0 -78113355#3 78108438"/>
    </vehicle>
    <vehicle id="72" depart="72.00" departLane="best" departPos="random" departSpeed="max">
        <route edges="-78100359#5 -78100359#4 -78100359#3 -78100359#2 -78100359#1 -78100359#0"/>
    </vehicle>
    <vehicle id="73" depart="73.00" departLane="best" departPos="random" departSpeed="max">
        <route edges="78117315#0 78117315#1 78117315#2 173001466#1"/>
    </vehicle>
    <vehicle id="74" depart="74.00" departLane="best" departPos="random" departSpeed="max">
        <route edges="211973000#0 211973000#1 211973000#2 180834256#0 -78113355#3 78108438"/>
    </vehicle>
    <vehicle id="75" depart="75.00" departLane="best" departPos="random" departSpeed="max">
        <route edges="-78115303 -78113355#1 78104928#1 78104928#2 211973000#1 211973000#2"/>
    </vehicle>
    <vehicle id="76" depart="76.00" departLane="best" departPos="random" departSpeed="max">
        <route edges="179394849#0 179394849#1 78102930 78247201 211973000#2 203831288 180834252#0 180834252#1 180834252#2"/>
    </vehicle>
    <vehicle id="77" depart="77.00" departLane="best" departPos="random" departSpeed="max">
        <route edges="211973000#2 203831288 180834252#0 78103797 176269589 173001466#0 173001466#1"/>
    </vehicle>
    <vehicle id="78" depart="78.00" departLane="best" departPos="random" departSpeed="max">
        <route edges="173001467#0 173001467#1 219475332#0 78119527#0 -78100359#2 -78100359#1 -78100359#0"/>
    </vehicle>
    <vehicle id="79" depart="79.00" departLane="best" departPos="random" departSpeed="max">
        <route edges="-173001466#1 -173001466#0 -78115276#2 -78115276#1 -78115276#0"/>
    </vehicle>
    <vehicle id="80" depart="80.00" departLane="best" departPos="random" departSpeed="max">
        <route edges="-78108438 -78113355#2 -78113355#1 78104928#1 78104928#2 211973000#1"/>
    </vehicle>
    <vehicle id="81" depart="81.00" departLane="best" departPos="random" departSpeed="max">
        <route edges="78115276#0 78115276#1 78100359#2 78119527#1 78119527#2 203831291 180834254#0 78247201 211973000#2 180834256#0 180834256#1"/>
    </vehicle>
    <vehicle id="82" depart="82.00" departLane="best" departPos="random" departSpeed="max">
        <route edges="78104928#0 78104928#1 78104928#2 211973000#1 211973000#2 203831288 180834252#0 78103797 176269589 -78115276#2 -78115276#1 -78115276#0"/>
    </vehicle>
    <vehicle id="83" depart="83.00" departLane="best" departPos="random" departSpeed="max">
        <route edges="-173001466#1 -173001466#0 -78115276#2 78100359#2 78100359#3 180834252#2 219475332#0 219475332#1"/>
    </vehicle>
    <vehicle id="84" depart="84.00" departLane="best" departPos="random" departSpeed="max">
        <route edges="78100359#0 78100359#1 78100359#2 78100359#3 180834252#2"/>
    </vehicle>
    <vehicle id="85" depart="85.00" departLane="best" departPos="random" departSpeed="max">
        <route edges="-173001466#1 78117315#3 78114385 179394849#1 179394849#2 180834257 180834256#0 -78113355#3 -78113355#2 78115303"/>
    </vehicle>
    <vehicle id="86" depart="86.00" departLane="best" departPos="random" departSpeed="max">
        <route edges="78115276#0 78115276#1 78115276#2 78115276#3 180834259#1 78114385 179394849#1"/>
    </vehicle>
    <vehicle id="87" depart="87.00" departLane="best" departPos="random" departSpeed="max">
        <route edges="78104928#0 78104928#1 78104928#2 211973000#1 211973000#2 203831288 180834252#0 78103797 78119527#2 180834259#0 180834259#1 180834259#2"/>
    </vehicle>
    <vehicle id="88" depart="88.00" departLane="best" departPos="random" departSpeed="max">
        <route edges="78100359#1 -78100359#1 -78117315#1 -78117315#0"/>
    </vehicle>
    <vehicle id="89" depart="89.00" departLane="best" departPos="random" departSpeed="max">
        <route edges="78113355#0 78113355#1 78113355#2 78108438"/>
    </vehicle>
    <vehicle id="90" depart="90.00" departLane="best" departPos="random" departSpeed="max">
        <route edges="-78100359#1 -78117315#1 -190443984#0"/>
    </vehicle>
    <vehicle id="91" depart="91.00" departLane="best" departPos="random" departSpeed="max">
        <route edges="78104928#1 78104928#2 211973000#1 211973000#2 180834256#0 180834256#1"/>
    </vehicle>
    <vehicle id="92" depart="92.00" departLane="best" departPos="random" departSpeed="max">
        <route edges="-78100359#5 -78100359#4 -78100359#3 78119527#1 78119527#2 203831291 180834254#0 180834254#1"/>
    </vehicle>
    <vehicle id="93" depart="93.00" departLane="best" departPos="random" departSpeed="max">
        <route edges="180834254#0 78247201 211973000#2 180834256#0 180834256#1"/>
    </vehicle>
    <vehicle id="94" depart="94.00" departLane="best" departPos="random" departSpeed="max">
        <route edges="-78115303 -78113355#1 78104928#1 78104928#2 211973000#1 211973000#2 203831288 180834252#0 78103797 78119527#2 180834259#0 180834259#1 180834259#2"/>
    </vehicle>
    <vehicle id="95" depart="95.00" departLane="best" departPos="random" departSpeed="max">
        <route edges="-173001466#1 78117315#3 78114385 179394849#1 78102930 180834254#1"/>
    </vehicle>
    <vehicle id="96" depart="96.00" departLane="best" departPos="random" departSpeed="max">
        <route edges="173001467#0 173001467#1 219475332#0 78119527#0 -78100359#2 -78100359#1"/>
    </vehicle>
    <vehicle id="97" depart="97.00" departLane="best" departPos="random" departSpeed="max">
        <route edges="78100359#0 -78117315#1 -78117315#0"/>
    </vehicle>
    <vehicle id="98" depart="98.00" departLane="best" departPos="random" departSpeed="max">
        <route edges="-78100359#4 -78100359#3 -78100359#2 -78100359#1 -78117315#1 -78117315#0"/>
    </vehicle>
    <vehicle id="99" depart="99.00" departLane="best" departPos="random" departSpeed="max">
        <route edges="-78117315#1 78117315#1 78117315#2 78117315#3 78114385 179394849#1 179394849#2 180834257 180834256#0 180834256#1"/>
    </vehicle>
    <vehicle id="100" depart="100.00" departLane="best" departPos="random" departSpeed="max">
        <route edges="211973000#0 211973000#1 211973000#2 203831288 180834252#0 180834252#1 180834252#2 219475332#0 219475332#1"/>
    </vehicle>
    <vehicle id="101" depart="101.00" departLane="best" departPos="random" departSpeed="max">
        <route edges="180834252#0 78103797 176269589 -78115276#2 -78100359#1 -78117315#1"/>
    </vehicle>
    <vehicle id="102" depart="102.00" departLane="best" departPos="random" departSpeed="max">
        <route edges="78104928#0 78104928#1 78104928#2 211973000#1 211973000#2 203831288 180834252#0 180834252#1 78100359#4 78100359#5"/>
    </vehicle>
    <vehicle id="103" depart="103.00" departLane="best" departPos="random" departSpeed="max">
        <route edges="179182969#0 179182969#1 179182969#2 180834258 180834259#0 180834259#1 78114385 173001578"/>
    </vehicle>
    <vehicle id="104" depart="104.00" departLane="best" departPos="random" departSpeed="max">
        <route edges="179394849#0 179394849#1 179394849#2 180834257 180834256#0 -78113355#3 -78113355#2 78113355#2"/>
    </vehicle>
    <vehicle id="105" depart="105.00" departLane="best" departPos="random" departSpeed="max">
        <route edges="179394849#0 179394849#1 78102930 180834254#1"/>
    </vehicle>
    <vehicle id="106" depart="106.00" departLane="best" departPos="random" departSpeed="max">
        <route edges="190443984#1 78115276#1 78100359#2 78119527#1 78119527#2 203831291 180834254#0 78247201 211973000#2 180834256#0 -78113355#3 -78113355#2 -78113355#1 78104928#1 78106480"/>
    </vehicle>
    <vehicle id="107" depart="107.00" departLane="best" departPos="random" departSpeed="max">
        <route edges="-78108438 -78113355#2 -78113355#1 78104928#1 78104928#2 211973000#1 211973000#2 203831288 180834252#0 78103797 176269589 -78115276#2 -78100359#1 -78100359#0"/>
    </vehicle>
    <vehicle id="108" depart="108.00" departLane="best" departPos="random" departSpeed="max">
        <route edges="78100359#1 -78100359#1 -78117315#1 -190443984#0"/>
    </vehicle>
    <vehicle id="109" depart="109.00" departLane="best" departPos="random" departSpeed="max">
        <route edges="-78108438 -78113355#2 -78113355#1 78104928#1 78106480"/>
    </vehicle>
    <vehicle id="110" depart="110.00" departLane="best" departPos="random" departSpeed="max">
        <route edges="211973000#0 211973000#1 211973000#2 203831288 180834252#0 78103797 78119527#2 180834259#0 180834259#1 180834259#2"/>
    </vehicle>
    <vehicle id="111" depart="111.00" departLane="best" departPos="random" departSpeed="max">
        <route edges="-78108438 -78113355#2 -78113355#1 78104928#1 78104928#2 211973000#1 211973000#2 203831288 180834252#0 78103797 78119527#2 203831291 180834254#0 180834254#1"/>
    </vehicle>
    <vehicle id="112" depart="112.00" departLane="best" departPos="random" departSpeed="max">
        <route edges="-78117315#2 78117315#2 78117315#3 78114385 179394849#1 179394849#2 180834257 180834256#0 -78113355#3 -78113355#2 -78113355#1 78104928#1 78104928#2 211973000#1"/>
    </vehicle>
    <vehicle id="113" depart="113.00" departLane="best" departPos="random" departSpeed="max">
        <route edges="179394849#0 -78114385 -78117315#3 -78117315#2 -78117315#1 -78117315#0"/>
    </vehicle>
    <vehicle id="114" depart="114.00" departLane="best" departPos="random" departSpeed="max">
        <route edges="-78108438 -78113355#2 -78113355#1 78104928#1 78106480"/>
    </vehicle>
    <vehicle id="115" depart="115.00" departLane="best" departPos="random" departSpeed="max">
        <route edges="78104928#0 78104928#1 78104928#2 211973000#1 211973000#2 203831288 180834252#0 78103797 78119527#2 203831291 180834254#0 180834254#1"/>
    </vehicle>
    <vehicle id="116" depart="116.00" departLane="best" departPos="random" departSpeed="max">
        <route edges="173001467#0 173001467#1 219475332#0 78119527#0 78119527#1 78119527#2 203831291 180834254#0 78247201 211973000#2 180834256#0 -78113355#3 78108438"/>
    </vehicle>
    <vehicle id="117" depart="117.00" departLane="best" departPos="random" departSpeed="max">
        <route edges="-78106480 78104928#2 211973000#1 211973000#2 180834256#0 180834256#1"/>
    </vehicle>
    <vehicle id="118" depart="118.00" departLane="best" departPos="random" departSpeed="max">
        <route edges="78104928#0 78104928#1 78104928#2 211973000#1 211973000#2 203831288 180834252#0 78103797 78119527#2 180834259#0 180834259#1 78114385 173001578"/>
    </vehicle>
    <vehicle id="119" depart="119.00" departLane="best" departPos="random" departSpeed="max">
        <route edges="190443984#0 78117315#1 78117315#2 78117315#3 78114385 179394849#1 78102930 180834254#1"/>
    </vehicle>
    <vehicle id="120" depart="120.00" departLane="best" departPos="random" departSpeed="max">
        <route edges="78100359#3 -78100359#3 78119527#1 78119527#2 203831291 180834254#0 78247201 211973000#2 180834256#0 180834256#1"/>
    </vehicle>
    <vehicle id="121" depart="121.00" departLane="best" departPos="random" departSpeed="max">
        <route edges="190443984#1 78115276#1 78100359#2 78119527#1 78119527#2 203831291 180834254#0 78247201 211973000#2 180834256#0 -78113355#3 -78113355#2 -78113355#1 -78104928#0"/>
    </vehicle>
    <vehicle id="122" depart="122.00" departLane="best" departPos="random" departSpeed="max">
        <route edges="179182969#1 164947510 78103797 78119527#2 203831291 180834254#0 78247201 211973000#2 180834256#0 -78113355#3 -78113355#2 -78113355#1 -78104928#0"/>
    </vehicle>
    <vehicle id="123" depart="123.00" departLane="best" departPos="random" departSpeed="max">
        <route edges="179394849#0 179394849#1 179394849#2 180834257 180834256#0 -78113355#3 -78113355#2 -78113355#1 78104928#1 78104928#2 211973000#1"/>
    </vehicle>
    <vehicle id="124" depart="124.00" departLane="best" departPos="random" departSpeed="max">
        <route edges="78113355#0 78104928#1 78104928#2 211973000#1 211973000#2 203831288 180834252#0 78103797 78119527#2 203831291 180834254#0 180834254#1"/>
    </vehicle>
    <vehicle id="125" depart="125.00" departLane="best" departPos="random" departSpeed="max">
        <route edges="-78108438 -78113355#2 -78113355#1 78104928#1 78104928#2 211973000#1 211973000#2 203831288 180834252#0 78103797 176269589 173001466#0 173001466#1"/>
    </vehicle>
    <vehicle id="126" depart="126.00" departLane="best" departPos="random" departSpeed="max">
        <route edges="-78108438 -78113355#2 -78113355#1 78104928#1 78104928#2 211973000#1 211973000#2 203831288 180834252#0 78103797 78119527#2 203831291 180834254#0 180834254#1"/>
    </vehicle>
    <vehicle id="127" depart="127.00" departLane="best" departPos="random" departSpeed="max">