<?xml version="1.0" encoding="UTF-8"?>

<!-- generated on 08/15/14 01:15:15 by SUMO netconvert Version 0.20.0
<?xml version="1.0" encoding="UTF-8"?>

<configuration xmlns:xsi="http://www.w3.org/2001/XMLSchema-instance" xsi:noNamespaceSchemaLocation="http://sumo-sim.org/xsd/netconvertConfiguration.xsd">

    <input>
        <osm-files value="red.osm"/>
    </input>

    <output>
        <output-file value="red.net.xml"/>
    </output>

    <projection>
        <proj.utm value="true"/>
    </projection>

</configuration>
-->

<net version="0.13" xmlns:xsi="http://www.w3.org/2001/XMLSchema-instance" xsi:noNamespaceSchemaLocation="http://sumo-sim.org/xsd/net_file.xsd">

    <location netOffset="-578355.75,3861169.50" convBoundary="0.00,0.00,754.87,743.50" origBoundary="-56.142528,-34.889883,-56.134243,-34.883175" projParameter="+proj=utm +zone=21 +ellps=WGS84 +datum=WGS84 +units=m +no_defs"/>

    <edge id=":1765374031_0" function="internal">
        <lane id=":1765374031_0_0" index="0" speed="14.58" length="10.79" shape="331.13,432.40 331.84,431.23 332.37,429.18 332.71,426.27 332.87,422.49"/>
        <lane id=":1765374031_0_1" index="1" speed="14.58" length="10.79" shape="331.13,432.40 333.30,430.08 334.87,427.66 335.83,425.15 336.17,422.54"/>
    </edge>
    <edge id=":1765374031_2" function="internal">
        <lane id=":1765374031_2_0" index="0" speed="16.67" length="12.04" shape="331.13,432.40 333.76,429.99 335.55,428.32 337.33,426.65 339.94,424.22"/>
        <lane id=":1765374031_2_1" index="1" speed="16.67" length="12.04" shape="333.36,434.83 335.99,432.41 337.79,430.75 339.57,429.07 342.19,426.63"/>
    </edge>
    <edge id=":917311206_0" function="internal">
        <lane id=":917311206_0_0" index="0" speed="12.50" length="4.82" shape="338.90,744.68 337.44,744.95 336.56,744.65 336.28,743.77 336.59,742.32"/>
    </edge>
    <edge id=":917321197_0" function="internal">
        <lane id=":917321197_0_0" index="0" speed="12.50" length="4.82" shape="138.45,176.80 137.65,175.55 137.60,174.63 138.30,174.04 139.77,173.78"/>
    </edge>
    <edge id=":917358977_0" function="internal">
        <lane id=":917358977_0_0" index="0" speed="12.50" length="5.02" shape="166.40,476.24 165.10,475.75 163.97,475.79 162.99,476.36 162.17,477.46"/>
    </edge>
    <edge id=":917358977_1" function="internal">
        <lane id=":917358977_1_0" index="0" speed="12.50" length="9.52" shape="166.40,476.24 158.05,471.65"/>
    </edge>
    <edge id=":917358977_2" function="internal">
        <lane id=":917358977_2_0" index="0" speed="12.50" length="3.19" shape="166.40,476.24 164.12,474.53 163.95,474.24"/>
    </edge>
    <edge id=":917358977_3" function="internal">
        <lane id=":917358977_3_0" index="0" speed="12.50" length="2.41" shape="166.40,476.24 165.71,474.92 165.74,474.00"/>
    </edge>
    <edge id=":917358977_16" function="internal">
        <lane id=":917358977_16_0" index="0" speed="12.50" length="7.17" shape="163.95,474.24 162.94,472.52 162.86,470.18 163.87,467.53"/>
    </edge>
    <edge id=":917358977_17" function="internal">
        <lane id=":917358977_17_0" index="0" speed="12.50" length="2.41" shape="165.74,474.00 166.50,473.47 167.98,473.34"/>
    </edge>
    <edge id=":917358977_4" function="internal">
        <lane id=":917358977_4_0" index="0" speed="12.50" length="5.01" shape="166.76,469.13 166.27,470.41 166.31,471.54 166.88,472.52 167.98,473.34"/>
    </edge>
    <edge id=":917358977_5" function="internal">
        <lane id=":917358977_5_0" index="0" speed="12.50" length="9.51" shape="166.76,469.13 162.17,477.46"/>
    </edge>
    <edge id=":917358977_6" function="internal">
        <lane id=":917358977_6_0" index="0" speed="12.50" length="3.18" shape="166.76,469.13 165.05,471.39 164.75,471.57"/>
    </edge>
    <edge id=":917358977_7" function="internal">
        <lane id=":917358977_7_0" index="0" speed="12.50" length="2.41" shape="166.76,469.13 165.44,469.81 164.52,469.77"/>
    </edge>
    <edge id=":917358977_18" function="internal">
        <lane id=":917358977_18_0" index="0" speed="12.50" length="7.15" shape="164.75,471.57 163.03,472.57 160.69,472.65 158.05,471.65"/>
    </edge>
    <edge id=":917358977_19" function="internal">
        <lane id=":917358977_19_0" index="0" speed="12.50" length="2.41" shape="164.52,469.77 163.99,469.01 163.87,467.53"/>
    </edge>
    <edge id=":917358977_8" function="internal">
        <lane id=":917358977_8_0" index="0" speed="12.50" length="5.02" shape="159.65,468.77 160.93,469.25 162.06,469.20 163.04,468.63 163.87,467.53"/>
    </edge>
    <edge id=":917358977_9" function="internal">
        <lane id=":917358977_9_0" index="0" speed="12.50" length="9.51" shape="159.65,468.77 167.98,473.34"/>
    </edge>
    <edge id=":917358977_10" function="internal">
        <lane id=":917358977_10_0" index="0" speed="12.50" length="3.19" shape="159.65,468.77 161.90,470.46 162.08,470.78"/>
    </edge>
    <edge id=":917358977_11" function="internal">
        <lane id=":917358977_11_0" index="0" speed="12.50" length="2.41" shape="159.65,468.77 160.33,470.09 160.29,471.01"/>
    </edge>
    <edge id=":917358977_20" function="internal">
        <lane id=":917358977_20_0" index="0" speed="12.50" length="7.13" shape="162.08,470.78 163.07,472.48 163.16,474.81 162.17,477.46"/>
    </edge>
    <edge id=":917358977_21" function="internal">
        <lane id=":917358977_21_0" index="0" speed="12.50" length="2.41" shape="160.29,471.01 159.53,471.53 158.05,471.65"/>
    </edge>
    <edge id=":917358977_12" function="internal">
        <lane id=":917358977_12_0" index="0" speed="12.50" length="5.01" shape="159.27,475.88 159.76,474.59 159.71,473.46 159.15,472.48 158.05,471.65"/>
    </edge>
    <edge id=":917358977_13" function="internal">
        <lane id=":917358977_13_0" index="0" speed="12.50" length="9.53" shape="159.27,475.88 163.87,467.53"/>
    </edge>
    <edge id=":917358977_14" function="internal">
        <lane id=":917358977_14_0" index="0" speed="12.50" length="3.19" shape="159.27,475.88 160.97,473.61 161.28,473.43"/>
    </edge>
    <edge id=":917358977_15" function="internal">
        <lane id=":917358977_15_0" index="0" speed="12.50" length="2.41" shape="159.27,475.88 160.59,475.19 161.51,475.22"/>
    </edge>
    <edge id=":917358977_22" function="internal">
        <lane id=":917358977_22_0" index="0" speed="12.50" length="7.15" shape="161.28,473.43 162.99,472.43 165.32,472.34 167.98,473.34"/>
    </edge>
    <edge id=":917358977_23" function="internal">
        <lane id=":917358977_23_0" index="0" speed="12.50" length="2.41" shape="161.51,475.22 162.04,475.98 162.17,477.46"/>
    </edge>
    <edge id=":917360132_0" function="internal">
        <lane id=":917360132_0_0" index="0" speed="16.67" length="8.11" shape="51.88,328.17 53.85,328.00 55.48,327.17 56.77,325.69 57.74,323.55"/>
    </edge>
    <edge id=":917360132_1" function="internal">
        <lane id=":917360132_1_0" index="0" speed="20.83" length="8.29" shape="51.88,328.17 60.15,327.20"/>
        <lane id=":917360132_1_1" index="1" speed="20.83" length="8.29" shape="51.65,331.46 59.84,330.48"/>
    </edge>
    <edge id=":917360132_3" function="internal">
        <lane id=":917360132_3_0" index="0" speed="12.50" length="13.05" shape="53.84,336.01 54.84,332.71 55.75,329.77 56.68,326.83 57.74,323.55"/>
    </edge>
    <edge id=":917360132_4" function="internal">
        <lane id=":917360132_4_0" index="0" speed="16.67" length="6.77" shape="53.84,336.01 54.88,333.44 56.23,331.67 57.89,330.68"/>
        <lane id=":917360132_4_1" index="1" speed="16.67" length="6.77" shape="53.84,336.01 54.50,334.86 55.67,334.10 57.35,333.74 59.54,333.77"/>
    </edge>
    <edge id=":917360132_6" function="internal">
        <lane id=":917360132_6_0" index="0" speed="16.67" length="1.97" shape="57.89,330.68 59.84,330.48"/>
    </edge>
    <edge id=":917380693_0" function="internal">
        <lane id=":917380693_0_0" index="0" speed="16.67" length="11.55" shape="223.53,375.83 220.18,376.02 217.40,376.84 215.20,378.30 213.57,380.39"/>
    </edge>
    <edge id=":917380693_1" function="internal">
        <lane id=":917380693_1_0" index="0" speed="20.83" length="14.76" shape="223.53,375.83 219.11,375.67 216.09,375.53 213.07,375.32 208.65,374.98"/>
        <lane id=":917380693_1_1" index="1" speed="20.83" length="14.76" shape="223.65,372.53 219.27,372.37 216.28,372.23 213.29,372.03 208.92,371.69"/>
        <lane id=":917380693_1_2" index="2" speed="20.83" length="14.76" shape="223.77,369.24 219.43,369.08 216.47,368.94 213.51,368.74 209.18,368.40"/>
    </edge>
    <edge id=":917380693_4" function="internal">
        <lane id=":917380693_4_0" index="0" speed="16.67" length="3.85" shape="223.77,369.24 220.57,368.81 220.02,368.52"/>
    </edge>
    <edge id=":917380693_11" function="internal">
        <lane id=":917380693_11_0" index="0" speed="16.67" length="5.56" shape="220.02,368.52 218.65,367.79 218.02,366.18 218.67,363.99"/>
    </edge>
    <edge id=":917380693_5" function="internal">
        <lane id=":917380693_5_0" index="0" speed="12.50" length="16.91" shape="221.60,365.51 219.71,369.10 217.63,372.98 215.53,376.85 213.57,380.39"/>
    </edge>
    <edge id=":917380693_6" function="internal">
        <lane id=":917380693_6_0" index="0" speed="16.67" length="6.04" shape="221.60,365.51 220.10,367.09 217.52,368.10 216.43,368.23"/>
    </edge>
    <edge id=":917380693_7" function="internal">
        <lane id=":917380693_7_0" index="0" speed="12.50" length="2.41" shape="221.60,365.51 220.30,366.23 219.37,366.21"/>
    </edge>
    <edge id=":917380693_12" function="internal">
        <lane id=":917380693_12_0" index="0" speed="16.67" length="7.27" shape="216.43,368.23 213.89,368.53 209.18,368.40"/>
    </edge>
    <edge id=":917380693_13" function="internal">
        <lane id=":917380693_13_0" index="0" speed="12.50" length="2.41" shape="219.37,366.21 218.83,365.47 218.67,363.99"/>
    </edge>
    <edge id=":917380693_8" function="internal">
        <lane id=":917380693_8_0" index="0" speed="16.67" length="5.63" shape="210.69,378.78 211.29,377.24 211.15,376.09 210.27,375.33 208.65,374.98"/>
    </edge>
    <edge id=":917380693_9" function="internal">
        <lane id=":917380693_9_0" index="0" speed="12.50" length="16.81" shape="210.69,378.78 212.64,375.25 214.73,371.41 216.79,367.56 218.67,363.99"/>
    </edge>
    <edge id=":917380693_10" function="internal">
        <lane id=":917380693_10_0" index="0" speed="12.50" length="2.41" shape="210.69,378.78 212.01,378.10 212.93,378.15"/>
    </edge>
    <edge id=":917380693_14" function="internal">
        <lane id=":917380693_14_0" index="0" speed="12.50" length="2.41" shape="212.93,378.15 213.45,378.91 213.57,380.39"/>
    </edge>
    <edge id=":917388577_0" function="internal">
        <lane id=":917388577_0_0" index="0" speed="12.50" length="12.07" shape="541.77,240.78 538.84,239.27 536.40,238.02 533.94,236.81 530.97,235.37"/>
    </edge>
    <edge id=":917388577_1" function="internal">
        <lane id=":917388577_1_0" index="0" speed="14.58" length="8.88" shape="541.77,240.78 540.23,239.50 539.86,237.87 540.67,235.88 542.65,233.55"/>
    </edge>
    <edge id=":917388577_2" function="internal">
        <lane id=":917388577_2_0" index="0" speed="12.50" length="4.82" shape="541.77,240.78 541.05,239.48 541.06,238.55 541.81,238.01 543.29,237.85"/>
    </edge>
    <edge id=":917388577_3" function="internal">
        <lane id=":917388577_3_0" index="0" speed="14.58" length="8.61" shape="532.41,232.40 534.59,233.13 536.64,233.18 538.56,232.53 540.35,231.19"/>
    </edge>
    <edge id=":917388577_4" function="internal">
        <lane id=":917388577_4_0" index="0" speed="12.50" length="12.17" shape="532.41,232.40 535.38,233.84 537.87,235.07 540.35,236.33 543.29,237.85"/>
    </edge>
    <edge id=":917388577_5" function="internal">
        <lane id=":917388577_5_0" index="0" speed="12.50" length="4.82" shape="532.41,232.40 533.16,233.68 533.18,234.60 532.45,235.16 530.97,235.37"/>
    </edge>
    <edge id=":917388577_6" function="internal">
        <lane id=":917388577_6_0" index="0" speed="14.58" length="5.49" shape="531.67,239.66 532.64,238.40 532.85,237.26 532.29,236.25 530.97,235.37"/>
    </edge>
    <edge id=":917388577_7" function="internal">
        <lane id=":917388577_7_0" index="0" speed="16.67" length="12.12" shape="531.67,239.66 534.25,237.14 536.01,235.42 537.77,233.70 540.35,231.19"/>
        <lane id=":917388577_7_1" index="1" speed="16.67" length="12.12" shape="533.98,242.02 536.55,239.51 538.32,237.79 540.08,236.06 542.65,233.55"/>
    </edge>
    <edge id=":917388577_9" function="internal">
        <lane id=":917388577_9_0" index="0" speed="14.58" length="10.77" shape="533.98,242.02 536.82,239.55 539.32,238.04 541.48,237.47 543.29,237.85"/>
    </edge>
    <edge id=":917406150_0" function="internal">
        <lane id=":917406150_0_0" index="0" speed="12.50" length="9.55" shape="380.65,284.50 371.92,280.62"/>
    </edge>
    <edge id=":917406150_1" function="internal">
        <lane id=":917406150_1_0" index="0" speed="12.50" length="11.10" shape="380.65,284.50 378.03,282.84 376.70,280.79 376.67,278.35 377.95,275.52"/>
    </edge>
    <edge id=":917406150_2" function="internal">
        <lane id=":917406150_2_0" index="0" speed="12.50" length="4.82" shape="380.65,284.50 379.86,283.24 379.82,282.32 380.53,281.73 382.00,281.48"/>
    </edge>
    <edge id=":917406150_3" function="internal">
        <lane id=":917406150_3_0" index="0" speed="12.50" length="5.18" shape="380.73,277.29 380.14,278.61 380.15,279.75 380.77,280.71 382.00,281.48"/>
    </edge>
    <edge id=":917406150_4" function="internal">
        <lane id=":917406150_4_0" index="0" speed="12.50" length="10.41" shape="380.73,277.29 378.84,279.61 376.74,280.94 374.43,281.28 371.92,280.62"/>
    </edge>
    <edge id=":917406150_5" function="internal">
        <lane id=":917406150_5_0" index="0" speed="12.50" length="4.82" shape="380.73,277.29 379.37,277.89 378.46,277.79 377.98,277.00 377.95,275.52"/>
    </edge>
    <edge id=":917406150_6" function="internal">
        <lane id=":917406150_6_0" index="0" speed="12.50" length="5.66" shape="373.25,277.60 374.53,277.91 375.74,277.66 376.88,276.86 377.95,275.52"/>
    </edge>
    <edge id=":917406150_7" function="internal">
        <lane id=":917406150_7_0" index="0" speed="12.50" length="9.57" shape="373.25,277.60 382.00,281.48"/>
    </edge>
    <edge id=":917406150_8" function="internal">
        <lane id=":917406150_8_0" index="0" speed="12.50" length="4.82" shape="373.25,277.60 374.05,278.86 374.10,279.78 373.39,280.37 371.92,280.62"/>
    </edge>
    <edge id=":917406150_9" function="internal">
        <lane id=":917406150_9_0" index="0" speed="12.50" length="5.80" shape="374.03,285.12 374.52,283.78 374.33,282.58 373.46,281.52 371.92,280.62"/>
    </edge>
    <edge id=":917406150_10" function="internal">
        <lane id=":917406150_10_0" index="0" speed="12.50" length="10.42" shape="374.03,285.12 375.32,282.39 375.93,280.28 376.56,278.19 377.95,275.52"/>
    </edge>
    <edge id=":917406150_11" function="internal">
        <lane id=":917406150_11_0" index="0" speed="12.50" length="9.73" shape="374.03,285.12 375.77,282.75 377.68,281.36 379.76,280.93 382.00,281.48"/>
    </edge>
    <edge id=":917410315_0" function="internal">
        <lane id=":917410315_0_0" index="0" speed="16.67" length="5.73" shape="235.58,339.32 234.95,340.90 235.09,342.05 236.00,342.77 237.68,343.06"/>
    </edge>
    <edge id=":917410315_1" function="internal">
        <lane id=":917410315_1_0" index="0" speed="12.50" length="16.79" shape="235.58,339.32 233.62,342.84 231.52,346.67 229.45,350.51 227.57,354.07"/>
    </edge>
    <edge id=":917410315_2" function="internal">
        <lane id=":917410315_2_0" index="0" speed="12.50" length="2.41" shape="235.58,339.32 234.25,339.99 233.33,339.94"/>
    </edge>
    <edge id=":917410315_11" function="internal">
        <lane id=":917410315_11_0" index="0" speed="12.50" length="2.41" shape="233.33,339.94 232.82,339.18 232.70,337.70"/>
    </edge>
    <edge id=":917410315_3" function="internal">
        <lane id=":917410315_3_0" index="0" speed="16.67" length="11.18" shape="223.17,342.17 226.27,342.12 228.89,341.36 231.03,339.88 232.70,337.70"/>
    </edge>
    <edge id=":917410315_4" function="internal">
        <lane id=":917410315_4_0" index="0" speed="20.83" length="14.74" shape="223.17,342.17 227.47,342.56 230.42,342.78 233.37,342.91 237.68,343.06"/>
        <lane id=":917410315_4_1" index="1" speed="20.83" length="14.74" shape="222.87,345.46 227.23,345.85 230.21,346.07 233.20,346.21 237.58,346.35"/>
        <lane id=":917410315_4_2" index="2" speed="20.83" length="14.74" shape="222.57,348.75 226.98,349.14 230.01,349.36 233.04,349.50 237.47,349.65"/>
    </edge>
    <edge id=":917410315_7" function="internal">
        <lane id=":917410315_7_0" index="0" speed="16.67" length="3.75" shape="222.57,348.75 225.66,349.33 226.18,349.63"/>
    </edge>
    <edge id=":917410315_12" function="internal">
        <lane id=":917410315_12_0" index="0" speed="16.67" length="5.42" shape="226.18,349.63 227.53,350.42 228.16,352.00 227.57,354.07"/>
    </edge>
    <edge id=":917410315_8" function="internal">
        <lane id=":917410315_8_0" index="0" speed="12.50" length="16.90" shape="224.64,352.55 226.53,348.97 228.62,345.09 230.73,341.23 232.70,337.70"/>
    </edge>
    <edge id=":917410315_9" function="internal">
        <lane id=":917410315_9_0" index="0" speed="16.67" length="5.79" shape="224.64,352.55 226.08,351.14 228.70,350.19 229.69,350.06"/>
    </edge>
    <edge id=":917410315_10" function="internal">
        <lane id=":917410315_10_0" index="0" speed="12.50" length="2.41" shape="224.64,352.55 225.94,351.83 226.87,351.85"/>
    </edge>
    <edge id=":917410315_13" function="internal">
        <lane id=":917410315_13_0" index="0" speed="16.67" length="7.80" shape="229.69,350.06 232.49,349.70 237.47,349.65"/>
    </edge>
    <edge id=":917410315_14" function="internal">
        <lane id=":917410315_14_0" index="0" speed="12.50" length="2.41" shape="226.87,351.85 227.41,352.59 227.57,354.07"/>
    </edge>
    <edge id=":917419215_0" function="internal">
        <lane id=":917419215_0_0" index="0" speed="12.50" length="5.85" shape="292.41,245.53 290.90,245.11 289.57,245.24 288.42,245.95 287.46,247.21"/>
    </edge>
    <edge id=":917419215_1" function="internal">
        <lane id=":917419215_1_0" index="0" speed="12.50" length="10.08" shape="292.41,245.53 289.69,244.33 287.81,243.49 285.93,242.65 283.21,241.43"/>
    </edge>
    <edge id=":917419215_2" function="internal">
        <lane id=":917419215_2_0" index="0" speed="12.50" length="3.57" shape="292.41,245.53 289.90,243.96 289.56,243.46"/>
    </edge>
    <edge id=":917419215_3" function="internal">
        <lane id=":917419215_3_0" index="0" speed="12.50" length="2.41" shape="292.41,245.53 291.62,244.28 291.57,243.36"/>
    </edge>
    <edge id=":917419215_16" function="internal">
        <lane id=":917419215_16_0" index="0" speed="12.50" length="7.15" shape="289.56,243.46 288.56,241.98 288.40,239.60 289.41,236.81"/>
    </edge>
    <edge id=":917419215_17" function="internal">
        <lane id=":917419215_17_0" index="0" speed="12.50" length="2.41" shape="291.57,243.36 292.28,242.77 293.75,242.51"/>
    </edge>
    <edge id=":917419215_4" function="internal">
        <lane id=":917419215_4_0" index="0" speed="12.50" length="5.09" shape="292.32,238.37 291.84,239.69 291.91,240.83 292.55,241.77 293.75,242.51"/>
    </edge>
    <edge id=":917419215_5" function="internal">
        <lane id=":917419215_5_0" index="0" speed="12.50" length="10.10" shape="292.32,238.37 290.91,241.00 289.92,242.81 288.92,244.61 287.46,247.21"/>
    </edge>
    <edge id=":917419215_6" function="internal">
        <lane id=":917419215_6_0" index="0" speed="12.50" length="3.36" shape="292.32,238.37 290.59,240.72 290.22,240.95"/>
    </edge>
    <edge id=":917419215_7" function="internal">
        <lane id=":917419215_7_0" index="0" speed="12.50" length="2.41" shape="292.32,238.37 291.01,239.07 290.09,239.04"/>
    </edge>
    <edge id=":917419215_18" function="internal">
        <lane id=":917419215_18_0" index="0" speed="12.50" length="7.44" shape="290.22,240.95 288.50,242.02 286.04,242.25 283.21,241.43"/>
    </edge>
    <edge id=":917419215_19" function="internal">
        <lane id=":917419215_19_0" index="0" speed="12.50" length="2.41" shape="290.09,239.04 289.55,238.29 289.41,236.81"/>
    </edge>
    <edge id=":917419215_8" function="internal">
        <lane id=":917419215_8_0" index="0" speed="12.50" length="5.74" shape="284.57,238.42 286.07,238.86 287.38,238.74 288.49,238.05 289.41,236.81"/>
    </edge>
    <edge id=":917419215_9" function="internal">
        <lane id=":917419215_9_0" index="0" speed="12.50" length="10.05" shape="284.57,238.42 287.28,239.64 289.15,240.48 291.02,241.31 293.75,242.51"/>
    </edge>
    <edge id=":917419215_10" function="internal">
        <lane id=":917419215_10_0" index="0" speed="12.50" length="3.58" shape="284.57,238.42 287.09,240.03 287.41,240.51"/>
    </edge>
    <edge id=":917419215_11" function="internal">
        <lane id=":917419215_11_0" index="0" speed="12.50" length="2.41" shape="284.57,238.42 285.36,239.68 285.39,240.60"/>
    </edge>
    <edge id=":917419215_20" function="internal">
        <lane id=":917419215_20_0" index="0" speed="12.50" length="7.21" shape="287.41,240.51 288.42,242.03 288.54,244.42 287.46,247.21"/>
    </edge>
    <edge id=":917419215_21" function="internal">
        <lane id=":917419215_21_0" index="0" speed="12.50" length="2.41" shape="285.39,240.60 284.68,241.18 283.21,241.43"/>
    </edge>
    <edge id=":917419215_12" function="internal">
        <lane id=":917419215_12_0" index="0" speed="12.50" length="5.11" shape="284.58,245.60 285.09,244.27 285.04,243.14 284.41,242.19 283.21,241.43"/>
    </edge>
    <edge id=":917419215_13" function="internal">
        <lane id=":917419215_13_0" index="0" speed="12.50" length="10.03" shape="284.58,245.60 286.04,243.00 287.03,241.22 288.00,239.43 289.41,236.81"/>
    </edge>
    <edge id=":917419215_14" function="internal">
        <lane id=":917419215_14_0" index="0" speed="12.50" length="3.40" shape="284.58,245.60 286.36,243.26 286.75,243.02"/>
    </edge>
    <edge id=":917419215_15" function="internal">
        <lane id=":917419215_15_0" index="0" speed="12.50" length="2.41" shape="284.58,245.60 285.91,244.92 286.83,244.97"/>
    </edge>
    <edge id=":917419215_22" function="internal">
        <lane id=":917419215_22_0" index="0" speed="12.50" length="7.41" shape="286.75,243.02 288.48,241.97 290.94,241.72 293.75,242.51"/>
    </edge>
    <edge id=":917419215_23" function="internal">
        <lane id=":917419215_23_0" index="0" speed="12.50" length="2.41" shape="286.83,244.97 287.34,245.73 287.46,247.21"/>
    </edge>
    <edge id=":917436725_0" function="internal">
        <lane id=":917436725_0_0" index="0" speed="16.67" length="9.87" shape="331.83,346.14 334.85,346.00 337.31,345.38 339.22,344.27 340.57,342.67"/>
    </edge>
    <edge id=":917436725_1" function="internal">
        <lane id=":917436725_1_0" index="0" speed="20.83" length="10.90" shape="331.83,346.14 335.04,346.24 337.25,346.30 339.45,346.34 342.67,346.39"/>
        <lane id=":917436725_1_1" index="1" speed="20.83" length="10.90" shape="331.72,349.43 334.95,349.54 337.17,349.60 339.38,349.64 342.62,349.69"/>
        <lane id=":917436725_1_2" index="2" speed="20.83" length="10.90" shape="331.61,352.73 334.86,352.84 337.08,352.90 339.31,352.94 342.56,352.99"/>
    </edge>
    <edge id=":917436725_4" function="internal">
        <lane id=":917436725_4_0" index="0" speed="12.50" length="14.84" shape="334.58,355.96 335.31,351.42 336.77,348.20 338.62,345.54 340.57,342.67"/>
    </edge>
    <edge id=":917436725_5" function="internal">
        <lane id=":917436725_5_0" index="0" speed="16.67" length="4.79" shape="337.88,356.12 338.29,353.28 338.46,352.92"/>
        <lane id=":917436725_5_1" index="1" speed="16.67" length="4.79" shape="337.88,356.12 338.23,354.72 339.13,353.74 340.57,353.16 342.56,352.99"/>
    </edge>
    <edge id=":917436725_7" function="internal">
        <lane id=":917436725_7_0" index="0" speed="16.67" length="5.69" shape="338.46,352.92 339.22,351.26 340.66,350.07 342.62,349.69"/>
    </edge>
    <edge id=":917439617_0" function="internal">
        <lane id=":917439617_0_0" index="0" speed="16.67" length="7.78" shape="479.34,344.38 479.60,345.80 480.22,346.79 481.22,347.37 482.58,347.52"/>
        <lane id=":917439617_0_1" index="1" speed="16.67" length="7.78" shape="476.04,344.54 476.57,347.38 477.86,349.37 479.91,350.52 482.71,350.81"/>
    </edge>
    <edge id=":917439617_2" function="internal">
        <lane id=":917439617_2_0" index="0" speed="12.50" length="13.45" shape="476.04,344.54 476.74,348.40 477.97,350.93 479.17,353.46 479.75,357.33"/>
    </edge>
    <edge id=":917439617_3" function="internal">
        <lane id=":917439617_3_0" index="0" speed="20.83" length="9.68" shape="473.02,347.71 482.58,347.52"/>
        <lane id=":917439617_3_1" index="1" speed="20.83" length="9.68" shape="473.03,351.01 482.71,350.81"/>
        <lane id=":917439617_3_2" index="2" speed="20.83" length="9.68" shape="473.03,354.31 482.84,354.11"/>
    </edge>
    <edge id=":917439617_6" function="internal">
        <lane id=":917439617_6_0" index="0" speed="16.67" length="5.22" shape="473.03,354.31 474.51,354.50 475.57,355.08 476.22,356.04 476.45,357.38"/>
    </edge>
    <edge id=":917461389_0" function="internal">
        <lane id=":917461389_0_0" index="0" speed="20.83" length="9.54" shape="340.00,379.90 330.43,379.60"/>
        <lane id=":917461389_0_1" index="1" speed="20.83" length="9.54" shape="340.09,376.60 330.55,376.31"/>
        <lane id=":917461389_0_2" index="2" speed="20.83" length="9.54" shape="340.18,373.30 330.67,373.01"/>
    </edge>
    <edge id=":917461389_3" function="internal">
        <lane id=":917461389_3_0" index="0" speed="16.67" length="5.03" shape="340.18,373.30 338.81,373.07 337.86,372.46 337.32,371.46 337.19,370.09"/>
    </edge>
    <edge id=":917461389_4" function="internal">
        <lane id=":917461389_4_0" index="0" speed="16.67" length="7.71" shape="333.48,382.88 333.31,381.49 332.74,380.48 331.78,379.85 330.43,379.60"/>
        <lane id=":917461389_4_1" index="1" speed="16.67" length="7.71" shape="336.78,382.93 336.43,380.12 335.27,378.07 333.31,376.80 330.55,376.31"/>
    </edge>
    <edge id=":917461389_6" function="internal">
        <lane id=":917461389_6_0" index="0" speed="12.50" length="13.46" shape="336.78,382.93 336.33,379.03 335.26,376.43 334.23,373.83 333.90,369.93"/>
    </edge>
    <edge id=":917471266_0" function="internal">
        <lane id=":917471266_0_0" index="0" speed="12.50" length="4.82" shape="284.73,-0.79 286.05,-1.48 286.97,-1.45 287.50,-0.69 287.63,0.79"/>
    </edge>
    <edge id=":917488037_0" function="internal">
        <lane id=":917488037_0_0" index="0" speed="12.50" length="6.36" shape="439.93,191.47 438.27,190.92 436.80,190.98 435.51,191.65 434.41,192.92"/>
    </edge>
    <edge id=":917488037_1" function="internal">
        <lane id=":917488037_1_0" index="0" speed="12.50" length="10.55" shape="439.93,191.47 437.18,190.14 435.18,189.18 433.17,188.24 430.40,186.94"/>
    </edge>
    <edge id=":917488037_2" function="internal">
        <lane id=":917488037_2_0" index="0" speed="12.50" length="3.93" shape="439.93,191.47 437.31,189.70 436.92,189.04"/>
    </edge>
    <edge id=":917488037_3" function="internal">
        <lane id=":917488037_3_0" index="0" speed="12.50" length="2.41" shape="439.93,191.47 439.18,190.19 439.17,189.26"/>
    </edge>
    <edge id=":917488037_16" function="internal">
        <lane id=":917488037_16_0" index="0" speed="12.50" length="7.32" shape="436.92,189.04 436.05,187.59 436.15,185.13 437.61,182.32"/>
    </edge>
    <edge id=":917488037_17" function="internal">
        <lane id=":917488037_17_0" index="0" speed="12.50" length="2.41" shape="439.17,189.26 439.90,188.70 441.37,188.49"/>
    </edge>
    <edge id=":917488037_4" function="internal">
        <lane id=":917488037_4_0" index="0" speed="12.50" length="5.22" shape="440.29,184.25 439.61,185.55 439.56,186.69 440.15,187.67 441.37,188.49"/>
    </edge>
    <edge id=":917488037_5" function="internal">
        <lane id=":917488037_5_0" index="0" speed="12.50" length="10.48" shape="440.29,184.25 438.52,186.72 437.26,188.53 436.05,190.36 434.41,192.92"/>
    </edge>
    <edge id=":917488037_6" function="internal">
        <lane id=":917488037_6_0" index="0" speed="12.50" length="3.62" shape="440.29,184.25 438.20,186.47 437.69,186.73"/>
    </edge>
    <edge id=":917488037_7" function="internal">
        <lane id=":917488037_7_0" index="0" speed="12.50" length="2.41" shape="440.29,184.25 438.90,184.77 437.99,184.63"/>
    </edge>
    <edge id=":917488037_18" function="internal">
        <lane id=":917488037_18_0" index="0" speed="12.50" length="7.65" shape="437.69,186.73 435.85,187.66 433.25,187.82 430.40,186.94"/>
    </edge>
    <edge id=":917488037_19" function="internal">
        <lane id=":917488037_19_0" index="0" speed="12.50" length="2.41" shape="437.99,184.63 437.56,183.81 437.61,182.32"/>
    </edge>
    <edge id=":917488037_8" function="internal">
        <lane id=":917488037_8_0" index="0" speed="12.50" length="6.64" shape="431.80,183.95 433.46,184.46 434.99,184.36 436.37,183.64 437.61,182.32"/>
    </edge>
    <edge id=":917488037_9" function="internal">
        <lane id=":917488037_9_0" index="0" speed="12.50" length="10.59" shape="431.80,183.95 434.57,185.25 436.59,186.20 438.61,187.17 441.37,188.49"/>
    </edge>
    <edge id=":917488037_10" function="internal">
        <lane id=":917488037_10_0" index="0" speed="12.50" length="3.86" shape="431.80,183.95 434.37,185.64 434.79,186.31"/>
    </edge>