<additional>
   <tlLogic id="917358977" type="static" programID="1" offset="0">
        <phase duration="50" state="GGggrrrrGGggrrrr"/>
        <phase duration="5" state="yyggrrrryyggrrrr"/>
        <phase duration="20" state="rrGGrrrrrrGGrrrr"/>
        <phase duration="5" state="rryyrrrrrryyrrrr"/>
        <phase duration="50" state="rrrrGGggrrrrGGgg"/>
        <phase duration="5" state="rrrryyggrrrryygg"/>
        <phase duration="20" state="rrrrrrGGrrrrrrGG"/>
        <phase duration="5" state="rrrrrryyrrrrrryy"/>
    </tlLogic>
    <tlLogic id="917360132" type="static" programID="1" offset="0">
        <phase duration="50" state="GGGrrr"/>
        <phase duration="5" state="yyyrrr"/>
        <phase duration="20" state="rrrGGG"/>
        <phase duration="5" state="rrryyy"/>
    </tlLogic>
    <tlLogic id="917380693" type="static" programID="1" offset="0">
        <phase duration="50" state="rrrrrGggGGg"/>
        <phase duration="5" state="rrrrryggyyg"/>
        <phase duration="20" state="rrrrrrGGrrG"/>
        <phase duration="5" state="rrrrrryyrry"/>
        <phase duration="50" state="GGGGGrrrrrr"/>
        <phase duration="5" state="yyyyyrrrrrr"/>
    </tlLogic>
    <tlLogic id="917410315" type="static" programID="1" offset="0">
        <phase duration="50" state="GGgrrrrrGgg"/>
        <phase duration="5" state="yygrrrrrygg"/>
        <phase duration="20" state="rrGrrrrrrGG"/>
        <phase duration="5" state="rryrrrrrryy"/>
        <phase duration="50" state="rrrGGGGGrrr"/>
        <phase duration="5" state="rrryyyyyrrr"/>
    </tlLogic>
    <tlLogic id="917419215" type="static" programID="1" offset="0">
        <phase duration="50" state="GGggrrrrGGggrrrr"/>
        <phase duration="5" state="yyggrrrryyggrrrr"/>
        <phase duration="20" state="rrGGrrrrrrGGrrrr"/>
        <phase duration="5" state="rryyrrrrrryyrrrr"/>
        <phase duration="50" state="rrrrGGggrrrrGGgg"/>
        <phase duration="5" state="rrrryyggrrrryygg"/>
        <phase duration="20" state="rrrrrrGGrrrrrrGG"/>
        <phase duration="5" state="rrrrrryyrrrrrryy"/>
    </tlLogic>
    <tlLogic id="917436725" type="static" programID="1" offset="0">
        <phase duration="50" state="GGGGrrr"/>
        <phase duration="5" state="yyyyrrr"/>
        <phase duration="20" state="rrrrGGG"/>
        <phase duration="5" state="rrrryyy"/>
    </tlLogic>
    <tlLogic id="917439617" type="static" programID="1" offset="0">
        <phase duration="50" state="GGGrrrG"/>
        <phase duration="5" state="yyyrrry"/>
        <phase duration="20" state="rrrGGGG"/>
        <phase duration="5" state="rrryyyy"/>
    </tlLogic>
    <tlLogic id="917461389" type="static" programID="1" offset="0">
        <phase duration="50" state="GGGGrrr"/>
        <phase duration="5" state="yyyyrrr"/>
        <phase duration="20" state="rrrGGGG"/>
        <phase duration="5" state="rrryyyy"/>
    </tlLogic>
    <tlLogic id="917488037" type="static" programID="1" offset="0">
        <phase duration="50" state="GGggrrrrGGggrrrr"/>
        <phase duration="5" state="yyggrrrryyggrrrr"/>
        <phase duration="20" state="rrGGrrrrrrGGrrrr"/>
        <phase duration="5" state="rryyrrrrrryyrrrr"/>
        <phase duration="50" state="rrrrGGggrrrrGGgg"/>
        <phase duration="5" state="rrrryyggrrrryygg"/>
        <phase duration="20" state="rrrrrrGGrrrrrrGG"/>
        <phase duration="5" state="rrrrrryyrrrrrryy"/>
    </tlLogic>
    <tlLogic id="917507890" type="static" programID="1" offset="0">
        <phase duration="50" state="GGgGggrrr"/>
        <phase duration="5" state="yygyggrrr"/>
        <phase duration="20" state="rrGrGGrrr"/>
        <phase duration="5" state="rryryyrrr"/>
        <phase duration="50" state="GrrrrrGGg"/>
        <phase duration="5" state="yrrrrryyy"/>
    </tlLogic>
    <tlLogic id="917532780" type="static" programID="1" offset="0">
        <phase duration="50" state="GGGrr"/>
        <phase duration="5" state="yyyrr"/>
        <phase duration="20" state="rrrGG"/>
        <phase duration="5" state="rrryy"/>
    </tlLogic>
    <tlLogic id="917540631" type="static" programID="1" offset="0">
        <phase duration="50" state="rrrrGGggrrrrGGgg"/>
        <phase duration="5" state="rrrryyggrrrryygg"/>
        <phase duration="20" state="rrrrrrGGrrrrrrGG"/>
        <phase duration="5" state="rrrrrryyrrrrrryy"/>
        <phase duration="50" state="GGggrrrrGGggrrrr"/>
        <phase duration="5" state="yyggrrrryyggrrrr"/>
        <phase duration="20" state="rrGGrrrrrrGGrrrr"/>
        <phase duration="5" state="rryyrrrrrryyrrrr"/>
    </tlLogic>
    <tlLogic id="917567313" type="static" programID="1" offset="0">
        <phase duration="50" state="GGGGGrrr"/>
        <phase duration="5" state="yyyyyrrr"/>
        <phase duration="20" state="GrrrrGGg"/>
        <phase duration="5" state="yrrrryyy"/>
    </tlLogic>
    <tlLogic id="917571852" type="static" programID="1" offset="0">
        <phase duration="50" state="rrrrGGggrrrrGGgg"/>
        <phase duration="5" state="rrrryyggrrrryygg"/>
        <phase duration="20" state="rrrrrrGGrrrrrrGG"/>
        <phase duration="5" state="rrrrrryyrrrrrryy"/>
        <phase duration="50" state="GGggrrrrGGggrrrr"/>
        <phase duration="5" state="yyggrrrryyggrrrr"/>
        <phase duration="20" state="rrGGrrrrrrGGrrrr"/>
        <phase duration="5" state="rryyrrrrrryyrrrr"/>
    </tlLogic>
    <tlLogic id="917586359" type="static" programID="1" offset="0">
        <phase duration="50" state="GGGGr"/>
        <phase duration="5" state="yyyyr"/>
        <phase duration="20" state="GrrrG"/>
        <phase duration="5" state="yrrry"/>
    </tlLogic>
    <tlLogic id="917594338" type="static" programID="1" offset="0">
        <phase duration="50" state="GGGrrr"/>
        <phase duration="5" state="yyyrrr"/>
        <phase duration="20" state="rrrGGG"/>
        <phase duration="5" state="rrryyy"/>
    </tlLogic>
    <tlLogic id="917596287" type="static" programID="1" offset="0">
        <phase duration="50" state="GGGrrr"/>
        <phase duration="5" state="yyyrrr"/>
        <phase duration="20" state="rrrGGG"/>
        <phase duration="5" state="rrryyy"/>
    </tlLogic>
    <tlLogic id="917601385" type="static" programID="1" offset="0">
        <phase duration="50" state="GGggrrrrGGggrrrr"/>
        <phase duration="5" state="yyggrrrryyggrrrr"/>
        <phase duration="20" state="rrGGrrrrrrGGrrrr"/>
        <phase duration="5" state="rryyrrrrrryyrrrr"/>
        <phase duration="50" state="rrrrGGggrrrrGGgg"/>
        <phase duration="5" state="rrrryyggrrrryygg"/>
        <phase duration="20" state="rrrrrrGGrrrrrrGG"/>
        <phase duration="5" state="rrrrrryyrrrrrryy"/>
    </tlLogic>
    <tlLogic id="917698098" type="static" programID="1" offset="0">
        <phase duration="50" state="GGGGr"/>
        <phase duration="5" state="yyyyr"/>
        <phase duration="20" state="GrrrG"/>
        <phase duration="5" state="yrrry"/>
    </tlLogic>
</additional>
